%% MATPOWER Case Format : Version 2
function mpc = pglib_opf_case500_tamu
mpc.version = '2';

%%-----  Power Flow Data  -----%%
%% system MVA base
mpc.baseMVA = 100.0;
%% bus data
%    bus_i    type    Pd    Qd    Gs    Bs    area    Vm    Va    baseKV    zone    Vmax    Vmin
mpc.bus = [
	1	1	0.0	0.0	0.0	0.0	1	1.0	0.0	138.0	2	1.1	0.9				
	2	1	42.8	11.41	0.0	0.0	1	1.0	0.0	138.0	2	1.1	0.9				
	3	1	0.0	0.0	0.0	0.0	1	1.0	0.0	138.0	2	1.1	0.9				
	4	1	132.69	35.38	0.0	0.0	1	1.0	0.0	138.0	2	1.1	0.9				
	5	1	0.0	0.0	0.0	0.0	1	1.0	0.0	138.0	1	1.1	0.9				
	6	1	3.2099999999999995	0.86	0.0	0.0	1	1.0	0.0	138.0	1	1.1	0.9				
	7	1	0.0	0.0	0.0	0.0	1	1.0	0.0	345.0	2	1.1	0.9				
	8	1	0.0	0.0	0.0	0.0	1	1.0	0.0	138.0	2	1.1	0.9				
	9	2	0.0	0.0	0.0	0.0	1	1.0	0.0	13.8	2	1.1	0.9				
	10	1	0.0	0.0	0.0	0.0	1	1.0	0.0	138.0	2	1.1	0.9				
	11	1	2.47	0.66	0.0	0.0	1	1.0	0.0	138.0	2	1.1	0.9				
	12	1	0.0	0.0	0.0	0.0	1	1.0	0.0	138.0	1	1.1	0.9				
	13	1	37.16	9.91	0.0	0.0	1	1.0	0.0	138.0	1	1.1	0.9				
	14	1	0.0	0.0	0.0	0.0	1	1.0	0.0	345.0	1	1.1	0.9				
	15	1	0.0	0.0	0.0	0.0	1	1.0	0.0	138.0	1	1.1	0.9				
	16	2	0.0	0.0	0.0	0.0	1	1.0	0.0	13.8	1	1.1	0.9				
	17	3	0.0	0.0	0.0	0.0	1	1.0	0.0	13.8	1	1.1	0.9				
	18	2	0.0	0.0	0.0	0.0	1	1.0	0.0	13.8	1	1.1	0.9				
	19	1	0.0	0.0	0.0	0.0	1	1.0	0.0	138.0	2	1.1	0.9				
	20	1	4.54	1.21	0.0	0.0	1	1.0	0.0	138.0	2	1.1	0.9				
	21	1	0.0	0.0	0.0	0.0	1	1.0	0.0	138.0	2	1.1	0.9				
	22	1	148.7	39.65	0.0	0.0	1	1.0	0.0	138.0	2	1.1	0.9				
	23	1	0.0	0.0	0.0	0.0	1	1.0	0.0	345.0	1	1.1	0.9				
	24	1	0.0	0.0	0.0	0.0	1	1.0	0.0	138.0	1	1.1	0.9				
	25	1	2.28	0.61	0.0	0.0	1	1.0	0.0	138.0	1	1.1	0.9				
	26	1	21.66	5.78	0.0	0.0	1	1.0	0.0	138.0	1	1.1	0.9				
	27	1	0.0	0.0	0.0	50.0	1	1.0	0.0	138.0	1	1.1	0.9				
	28	1	62.93	16.78	0.0	0.0	1	1.0	0.0	138.0	1	1.1	0.9				
	29	1	0.0	0.0	0.0	0.0	1	1.0	0.0	138.0	2	1.1	0.9				
	30	1	99.97	26.66	0.0	0.0	1	1.0	0.0	138.0	2	1.1	0.9				
	31	1	0.0	0.0	0.0	100.0	1	1.0	0.0	138.0	2	1.1	0.9				
	32	1	9.76	2.6	0.0	0.0	1	1.0	0.0	138.0	2	1.1	0.9				
	33	1	0.0	0.0	0.0	0.0	1	1.0	0.0	138.0	2	1.1	0.9				
	34	1	25.0	6.67	0.0	0.0	1	1.0	0.0	138.0	2	1.1	0.9				
	35	1	0.0	0.0	0.0	0.0	1	1.0	0.0	138.0	2	1.1	0.9				
	36	1	43.35	11.56	0.0	0.0	1	1.0	0.0	138.0	2	1.1	0.9				
	37	1	0.0	0.0	0.0	0.0	1	1.0	0.0	138.0	1	1.1	0.9				
	38	1	0.13	0.03	0.0	0.0	1	1.0	0.0	138.0	1	1.1	0.9				
	39	1	0.0	0.0	0.0	0.0	1	1.0	0.0	345.0	1	1.1	0.9				
	40	1	0.0	0.0	0.0	0.0	1	1.0	0.0	138.0	1	1.1	0.9				
	41	1	57.989999999999995	15.46	0.0	0.0	1	1.0	0.0	138.0	1	1.1	0.9				
	42	1	0.0	0.0	0.0	0.0	1	1.0	0.0	138.0	2	1.1	0.9				
	43	1	4.46	1.19	0.0	0.0	1	1.0	0.0	138.0	2	1.1	0.9				
	44	1	0.0	0.0	0.0	0.0	1	1.0	0.0	138.0	2	1.1	0.9				
	45	1	2.03	0.54	0.0	0.0	1	1.0	0.0	138.0	2	1.1	0.9				
	46	1	0.0	0.0	0.0	0.0	1	1.0	0.0	138.0	1	1.1	0.9				
	47	1	43.41	11.58	0.0	0.0	1	1.0	0.0	138.0	1	1.1	0.9				
	48	1	0.0	0.0	0.0	0.0	1	1.0	0.0	138.0	1	1.1	0.9				
	49	2	0.0	0.0	0.0	0.0	1	1.0	0.0	13.8	1	1.1	0.9				
	50	2	0.0	0.0	0.0	0.0	1	1.0	0.0	13.8	1	1.1	0.9				
	51	1	0.35	0.09	0.0	0.0	1	1.0	0.0	138.0	1	1.1	0.9				
	52	1	23.39	6.24	0.0	0.0	1	1.0	0.0	138.0	1	1.1	0.9				
	53	1	0.0	0.0	0.0	0.0	1	1.0	0.0	138.0	2	1.1	0.9				
	54	1	34.81	9.28	0.0	0.0	1	1.0	0.0	138.0	2	1.1	0.9				
	55	1	0.0	0.0	0.0	0.0	1	1.0	0.0	138.0	1	1.1	0.9				
	56	1	2.25	0.6	0.0	0.0	1	1.0	0.0	138.0	1	1.1	0.9				
	57	1	0.0	0.0	0.0	0.0	1	1.0	0.0	345.0	1	1.1	0.9				
	58	1	0.0	0.0	0.0	0.0	1	1.0	0.0	138.0	1	1.1	0.9				
	59	1	140.94	37.58	0.0	0.0	1	1.0	0.0	138.0	1	1.1	0.9				
	60	1	0.0	0.0	0.0	0.0	1	1.0	0.0	138.0	1	1.1	0.9				
	61	1	0.2	0.05	0.0	0.0	1	1.0	0.0	138.0	1	1.1	0.9				
	62	1	0.0	0.0	0.0	0.0	1	1.0	0.0	138.0	1	1.1	0.9				
	63	1	0.0	0.0	0.0	0.0	1	1.0	0.0	13.8	1	1.1	0.9				
	64	1	34.78	9.27	0.0	0.0	1	1.0	0.0	138.0	1	1.1	0.9				
	65	1	0.0	0.0	0.0	0.0	1	1.0	0.0	345.0	1	1.1	0.9				
	66	1	0.0	0.0	0.0	0.0	1	1.0	0.0	138.0	1	1.1	0.9				
	67	1	4.57	1.22	0.0	0.0	1	1.0	0.0	138.0	1	1.1	0.9				
	68	1	0.0	0.0	0.0	0.0	1	1.0	0.0	138.0	1	1.1	0.9				
	69	1	16.96	4.52	0.0	0.0	1	1.0	0.0	138.0	1	1.1	0.9				
	70	1	0.0	0.0	0.0	0.0	1	1.0	0.0	138.0	1	1.1	0.9				
	71	2	0.0	0.0	0.0	0.0	1	1.0	0.0	13.8	1	1.1	0.9				
	72	2	0.0	0.0	0.0	0.0	1	1.0	0.0	13.8	1	1.1	0.9				
	73	2	0.0	0.0	0.0	0.0	1	1.0	0.0	13.8	1	1.1	0.9				
	74	1	0.0	0.0	0.0	0.0	1	1.0	0.0	138.0	2	1.1	0.9				
	75	1	5.3	1.41	0.0	0.0	1	1.0	0.0	138.0	2	1.1	0.9				
	76	1	0.0	0.0	0.0	0.0	1	1.0	0.0	138.0	1	1.1	0.9				
	77	1	6.950000000000001	1.8500000000000003	0.0	0.0	1	1.0	0.0	138.0	1	1.1	0.9				
	78	1	0.0	0.0	0.0	0.0	1	1.0	0.0	138.0	1	1.1	0.9				
	79	1	0.38	0.1	0.0	0.0	1	1.0	0.0	138.0	1	1.1	0.9				
	80	1	0.0	0.0	0.0	0.0	1	1.0	0.0	345.0	2	1.1	0.9				
	81	1	0.0	0.0	0.0	0.0	1	1.0	0.0	138.0	2	1.1	0.9				
	82	2	0.0	0.0	0.0	0.0	1	1.0	0.0	13.8	2	1.1	0.9				
	83	1	0.0	0.0	0.0	0.0	1	1.0	0.0	138.0	2	1.1	0.9				
	84	1	61.41	16.38	0.0	0.0	1	1.0	0.0	138.0	2	1.1	0.9				
	85	1	0.0	0.0	0.0	0.0	1	1.0	0.0	138.0	2	1.1	0.9				
	86	1	17.59	4.69	0.0	0.0	1	1.0	0.0	138.0	2	1.1	0.9				
	87	1	0.0	0.0	0.0	0.0	1	1.0	0.0	138.0	1	1.1	0.9				
	88	1	5.25	1.4	0.0	0.0	1	1.0	0.0	138.0	1	1.1	0.9				
	89	1	0.0	0.0	0.0	0.0	1	1.0	0.0	138.0	2	1.1	0.9				
	90	1	5.9	1.5700000000000003	0.0	0.0	1	1.0	0.0	138.0	2	1.1	0.9				
	91	1	0.0	0.0	0.0	0.0	1	1.0	0.0	138.0	1	1.1	0.9				
	92	1	65.03	17.34	0.0	0.0	1	1.0	0.0	138.0	1	1.1	0.9				
	93	1	0.0	0.0	0.0	0.0	1	1.0	0.0	138.0	2	1.1	0.9				
	94	1	5.21	1.39	0.0	0.0	1	1.0	0.0	138.0	2	1.1	0.9				
	95	1	0.0	0.0	0.0	0.0	1	1.0	0.0	138.0	1	1.1	0.9				
	96	1	34.0	9.07	0.0	0.0	1	1.0	0.0	138.0	1	1.1	0.9				
	97	1	0.0	0.0	0.0	0.0	1	1.0	0.0	138.0	1	1.1	0.9				
	98	1	37.09	9.89	0.0	0.0	1	1.0	0.0	138.0	1	1.1	0.9				
	99	1	0.0	0.0	0.0	0.0	1	1.0	0.0	138.0	1	1.1	0.9				
	100	1	13.52	3.61	0.0	0.0	1	1.0	0.0	138.0	1	1.1	0.9				
	101	1	0.89	0.24	0.0	0.0	1	1.0	0.0	138.0	1	1.1	0.9				
	102	1	0.0	0.0	0.0	0.0	1	1.0	0.0	138.0	1	1.1	0.9				
	103	1	38.8	10.35	0.0	0.0	1	1.0	0.0	138.0	1	1.1	0.9				
	104	1	0.0	0.0	0.0	0.0	1	1.0	0.0	138.0	2	1.1	0.9				
	105	1	80.33	21.42	0.0	0.0	1	1.0	0.0	138.0	2	1.1	0.9				
	106	1	0.0	0.0	0.0	0.0	1	1.0	0.0	138.0	2	1.1	0.9				
	107	1	16.01	4.27	0.0	0.0	1	1.0	0.0	138.0	2	1.1	0.9				
	108	1	0.0	0.0	0.0	0.0	1	1.0	0.0	138.0	1	1.1	0.9				
	109	1	47.58	12.689999999999998	0.0	0.0	1	1.0	0.0	138.0	1	1.1	0.9				
	110	1	0.0	0.0	0.0	50.0	1	1.0	0.0	138.0	1	1.1	0.9				
	111	1	62.29	16.61	0.0	0.0	1	1.0	0.0	138.0	1	1.1	0.9				
	112	1	0.0	0.0	0.0	0.0	1	1.0	0.0	138.0	2	1.1	0.9				
	113	1	45.99	12.26	0.0	0.0	1	1.0	0.0	138.0	2	1.1	0.9				
	114	1	0.0	0.0	0.0	0.0	1	1.0	0.0	138.0	2	1.1	0.9				
	115	1	5.06	1.35	0.0	0.0	1	1.0	0.0	138.0	2	1.1	0.9				
	116	1	3.1	0.83	0.0	0.0	1	1.0	0.0	138.0	2	1.1	0.9				
	117	1	0.0	0.0	0.0	0.0	1	1.0	0.0	138.0	1	1.1	0.9				
	118	1	8.83	2.36	0.0	0.0	1	1.0	0.0	138.0	1	1.1	0.9				
	119	1	0.0	0.0	0.0	0.0	1	1.0	0.0	138.0	1	1.1	0.9				
	120	1	31.65	8.44	0.0	0.0	1	1.0	0.0	138.0	1	1.1	0.9				
	121	1	0.0	0.0	0.0	0.0	1	1.0	0.0	138.0	2	1.1	0.9				
	122	1	53.36	14.23	0.0	0.0	1	1.0	0.0	138.0	2	1.1	0.9				
	123	1	0.0	0.0	0.0	0.0	1	1.0	0.0	345.0	1	1.1	0.9				
	124	1	0.0	0.0	0.0	0.0	1	1.0	0.0	138.0	1	1.1	0.9				
	125	1	0.0	0.0	0.0	0.0	1	1.0	0.0	13.8	1	1.1	0.9				
	126	1	0.0	0.0	0.0	0.0	1	1.0	0.0	13.8	1	1.1	0.9				
	127	2	0.0	0.0	0.0	0.0	1	1.0	0.0	13.8	1	1.1	0.9				
	128	2	0.0	0.0	0.0	0.0	1	1.0	0.0	13.8	1	1.1	0.9				
	129	1	0.0	0.0	0.0	0.0	1	1.0	0.0	138.0	1	1.1	0.9				
	130	1	103.24	27.529999999999998	0.0	0.0	1	1.0	0.0	138.0	1	1.1	0.9				
	131	1	0.0	0.0	0.0	0.0	1	1.0	0.0	138.0	1	1.1	0.9				
	132	1	25.2	6.72	0.0	0.0	1	1.0	0.0	138.0	1	1.1	0.9				
	133	1	0.0	0.0	0.0	0.0	1	1.0	0.0	138.0	1	1.1	0.9				
	134	1	42.65	11.37	0.0	0.0	1	1.0	0.0	138.0	1	1.1	0.9				
	135	1	0.0	0.0	0.0	0.0	1	1.0	0.0	138.0	2	1.1	0.9				
	136	1	26.76	7.139999999999999	0.0	0.0	1	1.0	0.0	138.0	2	1.1	0.9				
	137	1	0.0	0.0	0.0	0.0	1	1.0	0.0	138.0	1	1.1	0.9				
	138	1	78.71	20.99	0.0	0.0	1	1.0	0.0	138.0	1	1.1	0.9				
	139	1	0.0	0.0	0.0	0.0	1	1.0	0.0	138.0	1	1.1	0.9				
	140	1	0.26	0.07	0.0	0.0	1	1.0	0.0	138.0	1	1.1	0.9				
	141	1	0.0	0.0	0.0	50.0	1	1.0	0.0	138.0	1	1.1	0.9				
	142	1	161.34	43.02	0.0	0.0	1	1.0	0.0	138.0	1	1.1	0.9				
	143	1	0.0	0.0	0.0	0.0	1	1.0	0.0	138.0	1	1.1	0.9				
	144	2	0.0	0.0	0.0	0.0	1	1.0	0.0	13.8	1	1.1	0.9				
	145	2	0.0	0.0	0.0	0.0	1	1.0	0.0	13.8	1	1.1	0.9				
	146	1	0.0	0.0	0.0	0.0	1	1.0	0.0	345.0	2	1.1	0.9				
	147	1	0.0	0.0	0.0	0.0	1	1.0	0.0	138.0	2	1.1	0.9				
	148	1	57.42	15.310000000000002	0.0	0.0	1	1.0	0.0	138.0	2	1.1	0.9				
	149	1	0.0	0.0	0.0	0.0	1	1.0	0.0	138.0	2	1.1	0.9				
	150	1	1.5	0.4	0.0	0.0	1	1.0	0.0	138.0	2	1.1	0.9				
	151	1	0.0	0.0	0.0	0.0	1	1.0	0.0	345.0	1	1.1	0.9				
	152	1	0.0	0.0	0.0	70.0	1	1.0	0.0	138.0	1	1.1	0.9				
	153	1	93.15	24.84	0.0	0.0	1	1.0	0.0	138.0	1	1.1	0.9				
	154	1	0.0	0.0	0.0	0.0	1	1.0	0.0	138.0	1	1.1	0.9				
	155	1	66.84	17.82	0.0	0.0	1	1.0	0.0	138.0	1	1.1	0.9				
	156	1	0.0	0.0	0.0	0.0	1	1.0	0.0	138.0	1	1.1	0.9				
	157	1	105.45	28.12	0.0	0.0	1	1.0	0.0	138.0	1	1.1	0.9				
	158	1	0.0	0.0	0.0	0.0	1	1.0	0.0	138.0	2	1.1	0.9				
	159	1	22.85	6.09	0.0	0.0	1	1.0	0.0	138.0	2	1.1	0.9				
	160	1	0.0	0.0	0.0	0.0	1	1.0	0.0	138.0	2	1.1	0.9				
	161	1	25.95	6.92	0.0	0.0	1	1.0	0.0	138.0	2	1.1	0.9				
	162	1	0.0	0.0	0.0	0.0	1	1.0	0.0	345.0	2	1.1	0.9				
	163	1	0.0	0.0	0.0	0.0	1	1.0	0.0	138.0	2	1.1	0.9				
	164	1	98.15	26.170000000000005	0.0	0.0	1	1.0	0.0	138.0	2	1.1	0.9				
	165	1	0.0	0.0	0.0	0.0	1	1.0	0.0	345.0	1	1.1	0.9				
	166	1	0.0	0.0	0.0	0.0	1	1.0	0.0	138.0	1	1.1	0.9				
	167	2	0.0	0.0	0.0	0.0	1	1.0	0.0	13.8	1	1.1	0.9				
	168	2	0.0	0.0	0.0	0.0	1	1.0	0.0	13.8	1	1.1	0.9				
	169	2	0.0	0.0	0.0	0.0	1	1.0	0.0	13.8	1	1.1	0.9				
	170	1	0.0	0.0	0.0	0.0	1	1.0	0.0	138.0	1	1.1	0.9				
	171	1	12.38	3.3000000000000003	0.0	0.0	1	1.0	0.0	138.0	1	1.1	0.9				
	172	1	0.0	0.0	0.0	0.0	1	1.0	0.0	138.0	1	1.1	0.9				
	173	1	3.1400000000000006	0.84	0.0	0.0	1	1.0	0.0	138.0	1	1.1	0.9				
	174	1	7.3	1.95	0.0	0.0	1	1.0	0.0	138.0	1	1.1	0.9				
	175	1	0.0	0.0	0.0	0.0	1	1.0	0.0	345.0	1	1.1	0.9				
	176	1	0.0	0.0	0.0	0.0	1	1.0	0.0	138.0	1	1.1	0.9				
	177	1	8.78	2.34	0.0	0.0	1	1.0	0.0	138.0	1	1.1	0.9				
	178	1	6.81	1.82	0.0	0.0	1	1.0	0.0	138.0	1	1.1	0.9				
	179	1	0.0	0.0	0.0	0.0	1	1.0	0.0	138.0	2	1.1	0.9				
	180	1	14.14	3.7699999999999996	0.0	0.0	1	1.0	0.0	138.0	2	1.1	0.9				
	181	1	0.0	0.0	0.0	60.0	1	1.0	0.0	138.0	1	1.1	0.9				
	182	1	82.61	22.03	0.0	0.0	1	1.0	0.0	138.0	1	1.1	0.9				
	183	1	0.0	0.0	0.0	0.0	1	1.0	0.0	138.0	1	1.1	0.9				
	184	1	30.18	8.05	0.0	0.0	1	1.0	0.0	138.0	1	1.1	0.9				
	185	1	0.0	0.0	0.0	0.0	1	1.0	0.0	138.0	1	1.1	0.9				
	186	1	45.35	12.09	0.0	0.0	1	1.0	0.0	138.0	1	1.1	0.9				
	187	1	0.0	0.0	0.0	0.0	1	1.0	0.0	138.0	2	1.1	0.9				
	188	1	11.05	2.95	0.0	0.0	1	1.0	0.0	138.0	2	1.1	0.9				
	189	1	0.0	0.0	0.0	0.0	1	1.0	0.0	138.0	2	1.1	0.9				
	190	1	14.069999999999999	3.75	0.0	0.0	1	1.0	0.0	138.0	2	1.1	0.9				
	191	1	0.0	0.0	0.0	0.0	1	1.0	0.0	138.0	2	1.1	0.9				
	192	1	16.44	4.38	0.0	0.0	1	1.0	0.0	138.0	2	1.1	0.9				
	193	1	0.0	0.0	0.0	0.0	1	1.0	0.0	138.0	2	1.1	0.9				
	194	1	28.689999999999998	7.6499999999999995	0.0	0.0	1	1.0	0.0	138.0	2	1.1	0.9				
	195	1	0.0	0.0	0.0	0.0	1	1.0	0.0	345.0	2	1.1	0.9				
	196	1	0.0	0.0	0.0	0.0	1	1.0	0.0	138.0	2	1.1	0.9				
	197	2	0.0	0.0	0.0	0.0	1	1.0	0.0	13.8	2	1.1	0.9				
	198	2	0.0	0.0	0.0	0.0	1	1.0	0.0	13.8	2	1.1	0.9				
	199	1	86.39	23.04	0.0	0.0	1	1.0	0.0	138.0	2	1.1	0.9				
	200	1	0.0	0.0	0.0	0.0	1	1.0	0.0	138.0	2	1.1	0.9				
	201	1	8.89	2.37	0.0	0.0	1	1.0	0.0	138.0	2	1.1	0.9				
	202	1	0.0	0.0	0.0	0.0	1	1.0	0.0	138.0	1	1.1	0.9				
	203	1	4.69	1.25	0.0	0.0	1	1.0	0.0	138.0	1	1.1	0.9				
	204	1	45.67	12.18	0.0	0.0	1	1.0	0.0	138.0	1	1.1	0.9				
	205	1	0.0	0.0	0.0	0.0	1	1.0	0.0	138.0	2	1.1	0.9				
	206	1	3.01	0.8	0.0	0.0	1	1.0	0.0	138.0	2	1.1	0.9				
	207	1	22.57	6.02	0.0	0.0	1	1.0	0.0	138.0	2	1.1	0.9				
	208	1	0.0	0.0	0.0	80.0	1	1.0	0.0	138.0	1	1.1	0.9				
	209	1	81.85	21.83	0.0	0.0	1	1.0	0.0	138.0	1	1.1	0.9				
	210	1	0.0	0.0	0.0	0.0	1	1.0	0.0	138.0	1	1.1	0.9				
	211	1	34.28	9.14	0.0	0.0	1	1.0	0.0	138.0	1	1.1	0.9				
	212	1	0.0	0.0	0.0	0.0	1	1.0	0.0	138.0	2	1.1	0.9				
	213	1	97.48	26.0	0.0	0.0	1	1.0	0.0	138.0	2	1.1	0.9				
	214	1	0.0	0.0	0.0	0.0	1	1.0	0.0	138.0	1	1.1	0.9				
	215	1	84.48	22.53	0.0	0.0	1	1.0	0.0	138.0	1	1.1	0.9				
	216	1	0.0	0.0	0.0	0.0	1	1.0	0.0	138.0	1	1.1	0.9				
	217	1	55.1	14.69	0.0	0.0	1	1.0	0.0	138.0	1	1.1	0.9				
	218	1	0.0	0.0	0.0	0.0	1	1.0	0.0	138.0	2	1.1	0.9				
	219	1	0.33	0.09	0.0	0.0	1	1.0	0.0	138.0	2	1.1	0.9				
	220	1	0.0	0.0	0.0	0.0	1	1.0	0.0	345.0	1	1.1	0.9				
	221	1	0.0	0.0	0.0	0.0	1	1.0	0.0	138.0	1	1.1	0.9				
	222	2	0.0	0.0	0.0	0.0	1	1.0	0.0	13.8	1	1.1	0.9				
	223	2	0.0	0.0	0.0	0.0	1	1.0	0.0	13.8	1	1.1	0.9				
	224	2	0.0	0.0	0.0	0.0	1	1.0	0.0	13.8	1	1.1	0.9				
	225	2	0.0	0.0	0.0	0.0	1	1.0	0.0	13.8	1	1.1	0.9				
	226	1	0.0	0.0	0.0	0.0	1	1.0	0.0	138.0	1	1.1	0.9				
	227	1	5.42	1.45	0.0	0.0	1	1.0	0.0	138.0	1	1.1	0.9				
	228	1	0.0	0.0	0.0	0.0	1	1.0	0.0	138.0	1	1.1	0.9				
	229	1	54.09	14.42	0.0	0.0	1	1.0	0.0	138.0	1	1.1	0.9				
	230	1	0.0	0.0	0.0	0.0	1	1.0	0.0	138.0	1	1.1	0.9				
	231	2	0.0	0.0	0.0	0.0	1	1.0	0.0	13.8	1	1.1	0.9				
	232	1	0.0	0.0	0.0	0.0	1	1.0	0.0	345.0	2	1.1	0.9				
	233	1	0.0	0.0	0.0	0.0	1	1.0	0.0	138.0	2	1.1	0.9				
	234	1	59.96	15.990000000000002	0.0	0.0	1	1.0	0.0	138.0	2	1.1	0.9				
	235	1	0.0	0.0	0.0	0.0	1	1.0	0.0	345.0	2	1.1	0.9				
	236	1	0.0	0.0	0.0	0.0	1	1.0	0.0	138.0	2	1.1	0.9				
	237	1	2.71	0.72	0.0	0.0	1	1.0	0.0	138.0	2	1.1	0.9				
	238	1	0.0	0.0	0.0	0.0	1	1.0	0.0	138.0	1	1.1	0.9				
	239	1	39.13	10.44	0.0	0.0	1	1.0	0.0	138.0	1	1.1	0.9				
	240	1	0.0	0.0	0.0	0.0	1	1.0	0.0	138.0	2	1.1	0.9				
	241	1	19.74	5.26	0.0	0.0	1	1.0	0.0	138.0	2	1.1	0.9				
	242	1	0.0	0.0	0.0	70.0	1	1.0	0.0	138.0	2	1.1	0.9				
	243	1	74.47	19.86	0.0	0.0	1	1.0	0.0	138.0	2	1.1	0.9				
	244	1	0.0	0.0	0.0	0.0	1	1.0	0.0	138.0	1	1.1	0.9				
	245	1	11.83	3.16	0.0	0.0	1	1.0	0.0	138.0	1	1.1	0.9				
	246	1	0.0	0.0	0.0	0.0	1	1.0	0.0	345.0	1	1.1	0.9				
	247	1	0.0	0.0	0.0	0.0	1	1.0	0.0	138.0	1	1.1	0.9				
	248	1	0.0	0.0	0.0	0.0	1	1.0	0.0	13.8	1	1.1	0.9				
	249	1	0.0	0.0	0.0	0.0	1	1.0	0.0	13.8	1	1.1	0.9				
	250	1	0.0	0.0	0.0	0.0	1	1.0	0.0	13.8	1	1.1	0.9				
	251	1	0.0	0.0	0.0	0.0	1	1.0	0.0	138.0	1	1.1	0.9				
	252	1	118.68	31.65	0.0	0.0	1	1.0	0.0	138.0	1	1.1	0.9				
	253	1	0.0	0.0	0.0	0.0	1	1.0	0.0	138.0	1	1.1	0.9				
	254	1	0.0	0.0	0.0	0.0	1	1.0	0.0	13.8	1	1.1	0.9				
	255	1	0.0	0.0	0.0	0.0	1	1.0	0.0	13.8	1	1.1	0.9				
	256	1	0.0	0.0	0.0	0.0	1	1.0	0.0	13.8	1	1.1	0.9				
	257	1	0.0	0.0	0.0	0.0	1	1.0	0.0	13.8	1	1.1	0.9				
	258	2	0.0	0.0	0.0	0.0	1	1.0	0.0	13.8	1	1.1	0.9				
	259	1	8.16	2.18	0.0	0.0	1	1.0	0.0	138.0	1	1.1	0.9				
	260	1	0.0	0.0	0.0	0.0	1	1.0	0.0	138.0	1	1.1	0.9				
	261	1	18.68	4.98	0.0	0.0	1	1.0	0.0	138.0	1	1.1	0.9				
	262	1	0.0	0.0	0.0	0.0	1	1.0	0.0	345.0	2	1.1	0.9				
	263	1	0.0	0.0	0.0	120.0	1	1.0	0.0	138.0	2	1.1	0.9				
	264	1	0.0	0.0	0.0	0.0	1	1.0	0.0	13.8	2	1.1	0.9				
	265	1	0.0	0.0	0.0	0.0	1	1.0	0.0	13.8	2	1.1	0.9				
	266	1	61.78	16.48	0.0	0.0	1	1.0	0.0	138.0	2	1.1	0.9				
	267	1	0.0	0.0	0.0	0.0	1	1.0	0.0	138.0	2	1.1	0.9				
	268	1	117.15	31.240000000000002	0.0	0.0	1	1.0	0.0	138.0	2	1.1	0.9				
	269	1	0.0	0.0	0.0	0.0	1	1.0	0.0	138.0	2	1.1	0.9				
	270	1	6.800000000000001	1.81	0.0	0.0	1	1.0	0.0	138.0	2	1.1	0.9				
	271	1	0.0	0.0	0.0	0.0	1	1.0	0.0	345.0	2	1.1	0.9				
	272	1	0.0	0.0	0.0	0.0	1	1.0	0.0	138.0	2	1.1	0.9				
	273	1	9.49	2.53	0.0	0.0	1	1.0	0.0	138.0	2	1.1	0.9				
	274	1	0.0	0.0	0.0	0.0	1	1.0	0.0	138.0	1	1.1	0.9				
	275	1	0.0	0.0	0.0	0.0	1	1.0	0.0	13.8	1	1.1	0.9				
	276	1	0.0	0.0	0.0	0.0	1	1.0	0.0	138.0	2	1.1	0.9				
	277	1	0.4099999999999999	0.11	0.0	0.0	1	1.0	0.0	138.0	2	1.1	0.9				
	278	1	5.77	1.54	0.0	0.0	1	1.0	0.0	138.0	2	1.1	0.9				
	279	1	0.0	0.0	0.0	0.0	1	1.0	0.0	138.0	1	1.1	0.9				
	280	1	16.94	4.52	0.0	0.0	1	1.0	0.0	138.0	1	1.1	0.9				
	281	1	0.0	0.0	0.0	0.0	1	1.0	0.0	138.0	1	1.1	0.9				
	282	1	117.30000000000001	31.28	0.0	0.0	1	1.0	0.0	138.0	1	1.1	0.9				
	283	1	0.0	0.0	0.0	0.0	1	1.0	0.0	138.0	2	1.1	0.9				
	284	1	32.65	8.71	0.0	0.0	1	1.0	0.0	138.0	2	1.1	0.9				
	285	1	0.0	0.0	0.0	0.0	1	1.0	0.0	138.0	1	1.1	0.9				
	286	1	8.27	2.2	0.0	0.0	1	1.0	0.0	138.0	1	1.1	0.9				
	287	1	0.0	0.0	0.0	0.0	1	1.0	0.0	138.0	2	1.1	0.9				
	288	1	58.10999999999999	15.5	0.0	0.0	1	1.0	0.0	138.0	2	1.1	0.9				
	289	1	0.0	0.0	0.0	0.0	1	1.0	0.0	138.0	1	1.1	0.9				
	290	1	3.6900000000000004	0.98	0.0	0.0	1	1.0	0.0	138.0	1	1.1	0.9				
	291	1	0.0	0.0	0.0	0.0	1	1.0	0.0	138.0	2	1.1	0.9				
	292	1	7.62	2.03	0.0	0.0	1	1.0	0.0	138.0	2	1.1	0.9				
	293	1	0.0	0.0	0.0	0.0	1	1.0	0.0	138.0	2	1.1	0.9				
	294	1	25.6	6.83	0.0	0.0	1	1.0	0.0	138.0	2	1.1	0.9				
	295	1	0.0	0.0	0.0	0.0	1	1.0	0.0	138.0	1	1.1	0.9				
	296	1	7.79	2.08	0.0	0.0	1	1.0	0.0	138.0	1	1.1	0.9				
	297	1	0.0	0.0	0.0	0.0	1	1.0	0.0	345.0	1	1.1	0.9				
	298	1	0.0	0.0	0.0	0.0	1	1.0	0.0	138.0	1	1.1	0.9				
	299	1	14.57	3.88	0.0	0.0	1	1.0	0.0	138.0	1	1.1	0.9				
	300	1	0.0	0.0	0.0	40.0	1	1.0	0.0	138.0	1	1.1	0.9				
	301	2	0.0	0.0	0.0	0.0	1	1.0	0.0	13.8	1	1.1	0.9				
	302	2	0.0	0.0	0.0	0.0	1	1.0	0.0	13.8	1	1.1	0.9				
	303	1	86.76	23.14	0.0	0.0	1	1.0	0.0	138.0	1	1.1	0.9				
	304	1	0.0	0.0	0.0	0.0	1	1.0	0.0	138.0	1	1.1	0.9				
	305	2	0.0	0.0	0.0	0.0	1	1.0	0.0	13.8	1	1.1	0.9				
	306	2	0.0	0.0	0.0	0.0	1	1.0	0.0	13.8	1	1.1	0.9				
	307	1	76.04	20.28	0.0	0.0	1	1.0	0.0	138.0	1	1.1	0.9				
	308	1	0.0	0.0	0.0	0.0	1	1.0	0.0	138.0	1	1.1	0.9				
	309	1	9.03	2.41	0.0	0.0	1	1.0	0.0	138.0	1	1.1	0.9				
	310	1	0.0	0.0	0.0	50.0	1	1.0	0.0	138.0	1	1.1	0.9				
	311	1	43.83	11.69	0.0	0.0	1	1.0	0.0	138.0	1	1.1	0.9				
	312	1	0.0	0.0	0.0	0.0	1	1.0	0.0	138.0	2	1.1	0.9				
	313	1	12.44	3.32	0.0	0.0	1	1.0	0.0	138.0	2	1.1	0.9				
	314	1	0.0	0.0	0.0	0.0	1	1.0	0.0	138.0	1	1.1	0.9				
	315	1	0.43	0.11	0.0	0.0	1	1.0	0.0	138.0	1	1.1	0.9				
	316	1	0.0	0.0	0.0	0.0	1	1.0	0.0	138.0	1	1.1	0.9				
	317	1	3.75	1.0	0.0	0.0	1	1.0	0.0	138.0	1	1.1	0.9				
	318	1	0.0	0.0	0.0	0.0	1	1.0	0.0	138.0	1	1.1	0.9				
	319	2	0.0	0.0	0.0	0.0	1	1.0	0.0	13.8	1	1.1	0.9				
	320	1	0.0	0.0	0.0	0.0	1	1.0	0.0	138.0	2	1.1	0.9				
	321	1	150.42	40.11	0.0	0.0	1	1.0	0.0	138.0	2	1.1	0.9				
	322	1	0.0	0.0	0.0	0.0	1	1.0	0.0	138.0	1	1.1	0.9				
	323	1	45.27	12.07	0.0	0.0	1	1.0	0.0	138.0	1	1.1	0.9				
	324	1	0.0	0.0	0.0	0.0	1	1.0	0.0	138.0	1	1.1	0.9				
	325	1	103.46	27.589999999999996	0.0	0.0	1	1.0	0.0	138.0	1	1.1	0.9				
	326	1	0.0	0.0	0.0	0.0	1	1.0	0.0	138.0	2	1.1	0.9				
	327	1	121.07	32.28	0.0	0.0	1	1.0	0.0	138.0	2	1.1	0.9				
	328	1	0.0	0.0	0.0	0.0	1	1.0	0.0	138.0	1	1.1	0.9				
	329	1	26.02	6.94	0.0	0.0	1	1.0	0.0	138.0	1	1.1	0.9				
	330	1	0.0	0.0	0.0	0.0	1	1.0	0.0	138.0	1	1.1	0.9				
	331	1	57.17	15.25	0.0	0.0	1	1.0	0.0	138.0	1	1.1	0.9				
	332	1	0.0	0.0	0.0	0.0	1	1.0	0.0	345.0	1	1.1	0.9				
	333	1	0.0	0.0	0.0	0.0	1	1.0	0.0	138.0	1	1.1	0.9				
	334	1	0.5	0.13	0.0	0.0	1	1.0	0.0	138.0	1	1.1	0.9				
	335	1	0.83	0.22	0.0	0.0	1	1.0	0.0	138.0	1	1.1	0.9				
	336	1	0.0	0.0	0.0	0.0	1	1.0	0.0	138.0	1	1.1	0.9				
	337	1	5.67	1.51	0.0	0.0	1	1.0	0.0	138.0	1	1.1	0.9				
	338	1	0.0	0.0	0.0	0.0	1	1.0	0.0	138.0	1	1.1	0.9				
	339	1	75.1	20.03	0.0	0.0	1	1.0	0.0	138.0	1	1.1	0.9				
	340	1	0.0	0.0	0.0	0.0	1	1.0	0.0	138.0	1	1.1	0.9				
	341	1	24.22	6.460000000000001	0.0	0.0	1	1.0	0.0	138.0	1	1.1	0.9				
	342	1	0.0	0.0	0.0	0.0	1	1.0	0.0	138.0	2	1.1	0.9				
	343	1	2.51	0.67	0.0	0.0	1	1.0	0.0	138.0	2	1.1	0.9				
	344	1	2.43	0.65	0.0	0.0	1	1.0	0.0	138.0	2	1.1	0.9				
	345	1	0.0	0.0	0.0	0.0	1	1.0	0.0	138.0	2	1.1	0.9				
	346	1	47.58	12.689999999999998	0.0	0.0	1	1.0	0.0	138.0	2	1.1	0.9				
	347	1	0.0	0.0	0.0	0.0	1	1.0	0.0	138.0	1	1.1	0.9				
	348	1	86.4	23.04	0.0	0.0	1	1.0	0.0	138.0	1	1.1	0.9				
	349	1	0.0	0.0	0.0	0.0	1	1.0	0.0	138.0	2	1.1	0.9				
	350	2	0.0	0.0	0.0	0.0	1	1.0	0.0	13.8	2	1.1	0.9				
	351	2	0.0	0.0	0.0	0.0	1	1.0	0.0	13.8	2	1.1	0.9				
	352	2	0.0	0.0	0.0	0.0	1	1.0	0.0	13.8	2	1.1	0.9				
	353	2	0.0	0.0	0.0	0.0	1	1.0	0.0	13.8	2	1.1	0.9				
	354	1	0.0	0.0	0.0	0.0	1	1.0	0.0	138.0	2	1.1	0.9				
	355	1	19.97	5.32	0.0	0.0	1	1.0	0.0	138.0	2	1.1	0.9				
	356	1	0.0	0.0	0.0	0.0	1	1.0	0.0	138.0	1	1.1	0.9				
	357	1	55.730000000000004	14.859999999999998	0.0	0.0	1	1.0	0.0	138.0	1	1.1	0.9				
	358	1	0.0	0.0	0.0	0.0	1	1.0	0.0	138.0	1	1.1	0.9				
	359	1	14.59	3.8900000000000006	0.0	0.0	1	1.0	0.0	138.0	1	1.1	0.9				
	360	1	0.0	0.0	0.0	0.0	1	1.0	0.0	138.0	1	1.1	0.9				
	361	1	0.0	0.0	0.0	0.0	1	1.0	0.0	13.8	1	1.1	0.9				
	362	1	0.0	0.0	0.0	0.0	1	1.0	0.0	13.8	1	1.1	0.9				
	363	1	0.0	0.0	0.0	0.0	1	1.0	0.0	13.8	1	1.1	0.9				
	364	1	30.44	8.12	0.0	0.0	1	1.0	0.0	138.0	1	1.1	0.9				
	365	1	0.0	0.0	0.0	0.0	1	1.0	0.0	138.0	2	1.1	0.9				
	366	1	56.49000000000001	15.06	0.0	0.0	1	1.0	0.0	138.0	2	1.1	0.9				
	367	1	0.0	0.0	0.0	0.0	1	1.0	0.0	138.0	1	1.1	0.9				
	368	1	11.45	3.05	0.0	0.0	1	1.0	0.0	138.0	1	1.1	0.9				
	369	1	0.0	0.0	0.0	0.0	1	1.0	0.0	138.0	1	1.1	0.9				
	370	1	35.6	9.49	0.0	0.0	1	1.0	0.0	138.0	1	1.1	0.9				
	371	1	0.0	0.0	0.0	0.0	1	1.0	0.0	345.0	2	1.1	0.9				
	372	1	0.0	0.0	0.0	0.0	1	1.0	0.0	138.0	2	1.1	0.9				
	373	1	28.84	7.690000000000001	0.0	0.0	1	1.0	0.0	138.0	2	1.1	0.9				
	374	1	0.0	0.0	0.0	0.0	1	1.0	0.0	138.0	2	1.1	0.9				
	375	1	24.76	6.6000000000000005	0.0	0.0	1	1.0	0.0	138.0	2	1.1	0.9				
	376	1	0.0	0.0	0.0	0.0	1	1.0	0.0	138.0	1	1.1	0.9				
	377	1	90.39	24.1	0.0	0.0	1	1.0	0.0	138.0	1	1.1	0.9				
	378	1	0.0	0.0	0.0	0.0	1	1.0	0.0	138.0	1	1.1	0.9				
	379	1	13.01	3.47	0.0	0.0	1	1.0	0.0	138.0	1	1.1	0.9				
	380	1	0.0	0.0	0.0	0.0	1	1.0	0.0	138.0	1	1.1	0.9				
	381	1	10.13	2.7	0.0	0.0	1	1.0	0.0	138.0	1	1.1	0.9				
	382	1	0.0	0.0	0.0	0.0	1	1.0	0.0	138.0	1	1.1	0.9				
	383	1	29.95	7.99	0.0	0.0	1	1.0	0.0	138.0	1	1.1	0.9				
	384	1	0.0	0.0	0.0	0.0	1	1.0	0.0	138.0	1	1.1	0.9				
	385	1	36.62	9.77	0.0	0.0	1	1.0	0.0	138.0	1	1.1	0.9				
	386	1	0.0	0.0	0.0	0.0	1	1.0	0.0	345.0	1	1.1	0.9				
	387	1	0.0	0.0	0.0	0.0	1	1.0	0.0	138.0	1	1.1	0.9				
	388	1	0.0	0.0	0.0	0.0	1	1.0	0.0	13.8	1	1.1	0.9				
	389	1	0.0	0.0	0.0	0.0	1	1.0	0.0	13.8	1	1.1	0.9				
	390	1	0.0	0.0	0.0	0.0	1	1.0	0.0	13.8	1	1.1	0.9				
	391	1	0.0	0.0	0.0	0.0	1	1.0	0.0	13.8	1	1.1	0.9				
	392	1	0.0	0.0	0.0	0.0	1	1.0	0.0	13.8	1	1.1	0.9				
	393	1	0.0	0.0	0.0	0.0	1	1.0	0.0	13.8	1	1.1	0.9				
	394	1	0.0	0.0	0.0	0.0	1	1.0	0.0	13.8	1	1.1	0.9				
	395	1	0.0	0.0	0.0	0.0	1	1.0	0.0	13.8	1	1.1	0.9				
	396	1	0.0	0.0	0.0	0.0	1	1.0	0.0	13.8	1	1.1	0.9				
	397	1	39.95	10.65	0.0	0.0	1	1.0	0.0	138.0	1	1.1	0.9				
	398	1	16.77	4.47	0.0	0.0	1	1.0	0.0	138.0	1	1.1	0.9				
	399	1	0.0	0.0	0.0	0.0	1	1.0	0.0	138.0	2	1.1	0.9				
	400	1	23.03	6.14	0.0	0.0	1	1.0	0.0	138.0	2	1.1	0.9				
	401	1	0.0	0.0	0.0	0.0	1	1.0	0.0	138.0	1	1.1	0.9				
	402	1	88.35	23.56	0.0	0.0	1	1.0	0.0	138.0	1	1.1	0.9				
	403	1	0.0	0.0	0.0	0.0	1	1.0	0.0	138.0	1	1.1	0.9				
	404	1	19.77	5.27	0.0	0.0	1	1.0	0.0	138.0	1	1.1	0.9				
	405	1	0.0	0.0	0.0	0.0	1	1.0	0.0	138.0	1	1.1	0.9				
	406	1	5.25	1.4	0.0	0.0	1	1.0	0.0	138.0	1	1.1	0.9				
	407	1	0.0	0.0	0.0	0.0	1	1.0	0.0	345.0	2	1.1	0.9				
	408	1	0.0	0.0	0.0	0.0	1	1.0	0.0	138.0	2	1.1	0.9				
	409	1	0.0	0.0	0.0	0.0	1	1.0	0.0	13.8	2	1.1	0.9				
	410	2	0.0	0.0	0.0	0.0	1	1.0	0.0	13.8	2	1.1	0.9				
	411	2	0.0	0.0	0.0	0.0	1	1.0	0.0	13.8	2	1.1	0.9				
	412	2	0.0	0.0	0.0	0.0	1	1.0	0.0	13.8	2	1.1	0.9				
	413	2	0.0	0.0	0.0	0.0	1	1.0	0.0	13.8	2	1.1	0.9				
	414	1	0.0	0.0	0.0	0.0	1	1.0	0.0	13.8	2	1.1	0.9				
	415	1	0.0	0.0	0.0	0.0	1	1.0	0.0	138.0	2	1.1	0.9				
	416	1	6.06	1.6200000000000003	0.0	0.0	1	1.0	0.0	138.0	2	1.1	0.9				
	417	1	0.0	0.0	0.0	110.00000000000001	1	1.0	0.0	138.0	1	1.1	0.9				
	418	1	63.62	16.96	0.0	0.0	1	1.0	0.0	138.0	1	1.1	0.9				
	419	1	0.0	0.0	0.0	0.0	1	1.0	0.0	138.0	1	1.1	0.9				
	420	1	5.23	1.39	0.0	0.0	1	1.0	0.0	138.0	1	1.1	0.9				
	421	1	0.0	0.0	0.0	0.0	1	1.0	0.0	138.0	2	1.1	0.9				
	422	1	49.18	13.11	0.0	0.0	1	1.0	0.0	138.0	2	1.1	0.9				
	423	1	0.0	0.0	0.0	0.0	1	1.0	0.0	138.0	1	1.1	0.9				
	424	1	157.1	41.89	0.0	0.0	1	1.0	0.0	138.0	1	1.1	0.9				
	425	1	0.0	0.0	0.0	0.0	1	1.0	0.0	345.0	1	1.1	0.9				
	426	1	0.0	0.0	0.0	50.0	1	1.0	0.0	138.0	1	1.1	0.9				
	427	1	14.429999999999998	3.85	0.0	0.0	1	1.0	0.0	138.0	1	1.1	0.9				
	428	1	0.0	0.0	0.0	0.0	1	1.0	0.0	345.0	1	1.1	0.9				
	429	1	0.0	0.0	0.0	0.0	1	1.0	0.0	138.0	1	1.1	0.9				
	430	2	0.0	0.0	0.0	0.0	1	1.0	0.0	13.8	1	1.1	0.9				
	431	2	0.0	0.0	0.0	0.0	1	1.0	0.0	13.8	1	1.1	0.9				
	432	2	0.0	0.0	0.0	0.0	1	1.0	0.0	13.8	1	1.1	0.9				
	433	2	0.0	0.0	0.0	0.0	1	1.0	0.0	13.8	1	1.1	0.9				
	434	2	0.0	0.0	0.0	0.0	1	1.0	0.0	13.8	1	1.1	0.9				
	435	1	0.0	0.0	0.0	0.0	1	1.0	0.0	13.8	1	1.1	0.9				
	436	1	0.0	0.0	0.0	0.0	1	1.0	0.0	13.8	1	1.1	0.9				
	437	2	0.0	0.0	0.0	0.0	1	1.0	0.0	13.8	1	1.1	0.9				
	438	2	0.0	0.0	0.0	0.0	1	1.0	0.0	13.8	1	1.1	0.9				
	439	2	0.0	0.0	0.0	0.0	1	1.0	0.0	13.8	1	1.1	0.9				
	440	1	0.0	0.0	0.0	0.0	1	1.0	0.0	345.0	1	1.1	0.9				
	441	1	0.0	0.0	0.0	0.0	1	1.0	0.0	138.0	1	1.1	0.9				
	442	1	0.0	0.0	0.0	0.0	1	1.0	0.0	13.8	1	1.1	0.9				
	443	1	0.0	0.0	0.0	0.0	1	1.0	0.0	13.8	1	1.1	0.9				
	444	1	0.0	0.0	0.0	0.0	1	1.0	0.0	13.8	1	1.1	0.9				
	445	1	0.0	0.0	0.0	40.0	1	1.0	0.0	138.0	1	1.1	0.9				
	446	1	88.68	23.65	0.0	0.0	1	1.0	0.0	138.0	1	1.1	0.9				
	447	1	0.0	0.0	0.0	0.0	1	1.0	0.0	138.0	1	1.1	0.9				
	448	1	57.56	15.35	0.0	0.0	1	1.0	0.0	138.0	1	1.1	0.9				
	449	1	0.0	0.0	0.0	0.0	1	1.0	0.0	138.0	1	1.1	0.9				
	450	1	1.12	0.3	0.0	0.0	1	1.0	0.0	138.0	1	1.1	0.9				
	451	1	2.21	0.59	0.0	0.0	1	1.0	0.0	138.0	1	1.1	0.9				
	452	1	11.16	2.98	0.0	0.0	1	1.0	0.0	138.0	1	1.1	0.9				
	453	1	0.0	0.0	0.0	0.0	1	1.0	0.0	345.0	2	1.1	0.9				
	454	1	0.0	0.0	0.0	0.0	1	1.0	0.0	138.0	2	1.1	0.9				
	455	2	0.0	0.0	0.0	0.0	1	1.0	0.0	13.8	2	1.1	0.9				
	456	2	0.0	0.0	0.0	0.0	1	1.0	0.0	13.8	2	1.1	0.9				
	457	1	0.0	0.0	0.0	0.0	1	1.0	0.0	138.0	2	1.1	0.9				
	458	2	0.0	0.0	0.0	0.0	1	1.0	0.0	13.8	2	1.1	0.9				
	459	1	74.47	19.86	0.0	0.0	1	1.0	0.0	138.0	1	1.1	0.9				
	460	1	26.340000000000003	7.02	0.0	0.0	1	1.0	0.0	138.0	1	1.1	0.9				
	461	1	91.72	24.46	0.0	0.0	1	1.0	0.0	138.0	1	1.1	0.9				
	462	1	0.0	0.0	0.0	0.0	1	1.0	0.0	138.0	1	1.1	0.9				
	463	1	0.0	0.0	0.0	0.0	1	1.0	0.0	13.8	1	1.1	0.9				
	464	1	0.0	0.0	0.0	0.0	1	1.0	0.0	345.0	1	1.1	0.9				
	465	1	12.520000000000001	3.34	0.0	0.0	1	1.0	0.0	138.0	1	1.1	0.9				
	466	1	43.34	11.56	0.0	0.0	1	1.0	0.0	138.0	1	1.1	0.9				
	467	1	0.8100000000000002	0.22	0.0	0.0	1	1.0	0.0	138.0	1	1.1	0.9				
	468	1	3.7599999999999993	1.0	0.0	0.0	1	1.0	0.0	138.0	1	1.1	0.9				
	469	1	128.53	34.28	0.0	0.0	1	1.0	0.0	138.0	1	1.1	0.9				
	470	1	42.56	11.35	0.0	0.0	1	1.0	0.0	138.0	1	1.1	0.9				
	471	1	0.0	0.0	0.0	0.0	1	1.0	0.0	345.0	1	1.1	0.9				
	472	1	49.71	13.26	0.0	0.0	1	1.0	0.0	138.0	1	1.1	0.9				
	473	1	1.0	0.27	0.0	0.0	1	1.0	0.0	138.0	1	1.1	0.9				
	474	1	167.22	44.59	0.0	0.0	1	1.0	0.0	138.0	1	1.1	0.9				
	475	1	0.16	0.04	0.0	0.0	1	1.0	0.0	138.0	2	1.1	0.9				
	476	1	59.86	15.960000000000003	0.0	0.0	1	1.0	0.0	138.0	2	1.1	0.9				
	477	1	31.33	8.35	0.0	0.0	1	1.0	0.0	138.0	1	1.1	0.9				
	478	1	9.16	2.44	0.0	0.0	1	1.0	0.0	138.0	1	1.1	0.9				
	479	1	0.0	0.0	0.0	0.0	1	1.0	0.0	138.0	2	1.1	0.9				
	480	2	0.0	0.0	0.0	0.0	1	1.0	0.0	13.8	2	1.1	0.9				
	481	2	0.0	0.0	0.0	0.0	1	1.0	0.0	13.8	2	1.1	0.9				
	482	2	0.0	0.0	0.0	0.0	1	1.0	0.0	13.8	2	1.1	0.9				
	483	2	0.0	0.0	0.0	0.0	1	1.0	0.0	13.8	2	1.1	0.9				
	484	2	0.0	0.0	0.0	0.0	1	1.0	0.0	13.8	2	1.1	0.9				
	485	1	27.88	7.429999999999999	0.0	0.0	1	1.0	0.0	138.0	2	1.1	0.9				
	486	1	68.54	18.28	0.0	0.0	1	1.0	0.0	138.0	2	1.1	0.9				
	487	1	11.67	3.11	0.0	0.0	1	1.0	0.0	138.0	1	1.1	0.9				
	488	1	97.9	26.11	0.0	0.0	1	1.0	0.0	138.0	1	1.1	0.9				
	489	1	3.6799999999999997	0.98	0.0	0.0	1	1.0	0.0	138.0	2	1.1	0.9				
	490	1	29.81	7.95	0.0	0.0	1	1.0	0.0	138.0	1	1.1	0.9				
	491	1	119.53	31.869999999999997	0.0	50.0	1	1.0	0.0	138.0	2	1.1	0.9				
	492	1	59.540000000000006	15.879999999999999	0.0	0.0	1	1.0	0.0	138.0	1	1.1	0.9				
	493	1	4.05	1.08	0.0	0.0	1	1.0	0.0	138.0	1	1.1	0.9				
	494	1	0.0	0.0	0.0	0.0	1	1.0	0.0	13.8	1	1.1	0.9				
	495	1	75.17	20.05	0.0	0.0	1	1.0	0.0	138.0	1	1.1	0.9				
	496	1	0.0	0.0	0.0	0.0	1	1.0	0.0	138.0	1	1.1	0.9				
	497	2	0.0	0.0	0.0	0.0	1	1.0	0.0	13.8	1	1.1	0.9				
	498	2	0.0	0.0	0.0	0.0	1	1.0	0.0	13.8	1	1.1	0.9				
	499	1	122.33000000000001	32.62	0.0	0.0	1	1.0	0.0	138.0	2	1.1	0.9				
	500	1	23.43	6.25	0.0	0.0	1	1.0	0.0	138.0	2	1.1	0.9				
];

%% generator data
%    bus    Pg    Qg    Qmax    Qmin    Vg    mBase    status    Pmax    Pmin    Pc1    Pc2    Qc1min    Qc1max    Qc2min    Qc2max    ramp_agc    ramp_10    ramp_30    ramp_q    apf
mpc.gen = [
	9	501.67	132.75	359.66	-94.16	1.0	926.16	1	771.8	231.54															
	16	288.89	63.56	163.56	-36.44	1.0	533.34	1	444.45	133.33															
	17	577.785	127.115	327.12	-72.89	1.0	1066.68	1	888.9	266.67															
	18	102.44	22.54	57.99999999999999	-12.920000000000002	1.0	189.12	1	157.6	47.28															
	49	0.845	0.22500000000000003	0.61	-0.16	1.0	1.56	1	1.3	0.39															
	50	1.69	0.445	1.21	-0.32	1.0	3.12	1	2.6	0.78															
	63	0.0	0.0	1.63	-0.36	1.0	3.84	0	3.2	0.96															
	71	2.6	0.67	1.54	-0.2	1.0	4.8	1	4.0	1.2															
	72	1.3	0.335	0.77	-0.1	1.0	2.4	1	2.0	0.6															
	73	0.91	0.23499999999999996	0.54	-0.07	1.0	1.68	1	1.4	0.42															
	82	235.23499999999999	60.62	138.97	-17.73	1.0	434.28	1	361.9	108.57															
	125	0.0	0.0	62.21	-7.9399999999999995	1.0	194.4	0	162.0	48.6															
	126	0.0	0.0	62.21	-7.9399999999999995	1.0	194.4	0	162.0	48.6															
	127	105.3	27.135000000000005	62.21	-7.9399999999999995	1.0	194.4	1	162.0	48.6															
	128	105.3	27.135000000000005	62.21	-7.9399999999999995	1.0	194.4	1	162.0	48.6															
	144	391.655	86.165	221.74	-49.41	1.0	723.06	1	602.55	180.76															
	145	391.655	86.165	221.74	-49.41	1.0	723.06	1	602.55	180.76															
	167	125.77500000000002	32.41	74.3	-9.48	1.0	232.2	1	193.5	58.050000000000004															
	168	125.77500000000002	32.41	74.3	-9.48	1.0	232.2	1	193.5	58.050000000000004															
	169	251.55000000000004	64.825	148.61	-18.96	1.0	464.4	1	387.0	116.10000000000001															
	197	190.84	50.5	136.82	-35.82	1.0	352.32	1	293.6	88.08															
	198	134.745	35.655	96.6	-25.290000000000003	1.0	248.76	1	207.29999999999998	62.19															
	222	3.38	0.8750000000000001	2.0	-0.25	1.0	6.24	1	5.2	1.56															
	223	11.7	3.015	6.909999999999999	-0.88	1.0	21.6	1	18.0	5.4															
	224	332.28	85.625	196.3	-25.05	1.0	613.44	1	511.2	153.36															