%% MATPOWER Case Format : Version 2
function mpc = pglib_opf_case30_fsr
mpc.version = '2';

%%-----  Power Flow Data  -----%%
%% system MVA base
mpc.baseMVA = 100.0;
%% bus data
%    bus_i    type    Pd    Qd    Gs    Bs    area    Vm    Va    baseKV    zone    Vmax    Vmin
mpc.bus = [
	1	3	0.0	0.0	0.0	0.0	1	1.0	0.0	135.0	1	1.05	0.95				
	2	2	21.7	12.7	0.0	0.0	1	1.025	0.0	135.0	1	1.1	0.95				
	3	1	2.4	1.2	0.0	0.0	1	1.0	0.0	135.0	1	1.05	0.95				
	4	1	7.6	1.6	0.0	0.0	1	1.0	0.0	135.0	1	1.05	0.95				
	5	1	0.0	0.0	0.0	0.19	1	1.0	0.0	135.0	1	1.05	0.95				
	6	1	0.0	0.0	0.0	0.0	1	1.0	0.0	135.0	1	1.05	0.95				
	7	1	22.8	10.9	0.0	0.0	1	1.0	0.0	135.0	1	1.05	0.95				
	8	1	30.0	30.0	0.0	0.0	1	1.0	0.0	135.0	1	1.05	0.95				
	9	1	0.0	0.0	0.0	0.0	1	1.0	0.0	135.0	1	1.05	0.95				
	10	1	5.8	2.0	0.0	0.0	3	1.0	0.0	135.0	1	1.05	0.95				
	11	1	0.0	0.0	0.0	0.0	1	1.0	0.0	135.0	1	1.05	0.95				
	12	1	11.2	7.5	0.0	0.0	2	1.0	0.0	135.0	1	1.05	0.95				
	13	2	0.0	0.0	0.0	0.0	2	1.025	0.0	135.0	1	1.1	0.95				
	14	1	6.2	1.6	0.0	0.0	2	1.0	0.0	135.0	1	1.05	0.95				
	15	1	8.2	2.5	0.0	0.0	2	1.0	0.0	135.0	1	1.05	0.95				
	16	1	3.5000000000000004	1.8000000000000003	0.0	0.0	2	1.0	0.0	135.0	1	1.05	0.95				
	17	1	9.0	5.8	0.0	0.0	2	1.0	0.0	135.0	1	1.05	0.95				
	18	1	3.2	0.9000000000000001	0.0	0.0	2	1.0	0.0	135.0	1	1.05	0.95				
	19	1	9.5	3.4000000000000004	0.0	0.0	2	1.0	0.0	135.0	1	1.05	0.95				
	20	1	2.2	0.7	0.0	0.0	2	1.0	0.0	135.0	1	1.05	0.95				
	21	1	17.5	11.2	0.0	0.0	3	1.0	0.0	135.0	1	1.05	0.95				
	22	2	0.0	0.0	0.0	0.0	3	1.025	0.0	135.0	1	1.1	0.95				
	23	2	3.2	1.6	0.0	0.0	2	1.025	0.0	135.0	1	1.1	0.95				
	24	1	8.7	6.7	0.0	0.04	3	1.0	0.0	135.0	1	1.05	0.95				
	25	1	0.0	0.0	0.0	0.0	3	1.0	0.0	135.0	1	1.05	0.95				
	26	1	3.5000000000000004	2.3	0.0	0.0	3	1.0	0.0	135.0	1	1.05	0.95				
	27	2	0.0	0.0	0.0	0.0	3	1.025	0.0	135.0	1	1.1	0.95				
	28	1	0.0	0.0	0.0	0.0	1	1.0	0.0	135.0	1	1.05	0.95				
	29	1	2.4	0.9000000000000001	0.0	0.0	3	1.0	0.0	135.0	1	1.05	0.95				
	30	1	10.6	1.9	0.0	0.0	3	1.0	0.0	135.0	1	1.05	0.95				
];

%% generator data
%    bus    Pg    Qg    Qmax    Qmin    Vg    mBase    status    Pmax    Pmin    Pc1    Pc2    Qc1min    Qc1max    Qc2min    Qc2max    ramp_agc    ramp_10    ramp_30    ramp_q    apf
mpc.gen = [
	1	40.0	114.99999999999999	250.0	-20.0	1.0	100.0	1	80.0	0.0															
	2	40.0	40.0	100.0	-20.0	1.025	100.0	1	80.0	0.0															
	22	25.0	32.5	80.0	-15.0	1.025	100.0	1	50.0	0.0															
	27	27.500000000000004	22.5	60.0	-15.0	1.025	100.0	1	55.00000000000001	0.0															
	23	15.0	20.0	50.0	-10.0	1.025	100.0	1	30.0	0.0															
	13	20.0	22.5	60.0	-15.0	1.025	100.0	1	40.0	0.0															
];

%% branch data
%    f_bus    t_bus    r    x    b    rateA    rateB    rateC    ratio    angle    status    angmin    angmax
mpc.branch = [
	1	2	0.00022977906861466267	0.06389694028093754	-0.5191147389254263	130.0	130.0	130.0	0	0	1	-29.999999999999996	29.999999999999996								
	1	3	0.0004958552291041434	0.07196131934441599	-0.026315464295674777	130.0	130.0	130.0	0	0	1	-29.999999999999996	29.999999999999996								
	2	4	0.0002518129105938293	0.05988866319841309	-0.05849250767821375	65.0	65.0	65.0	0	0	1	-29.999999999999996	29.999999999999996								
	3	4	0.0013021329522651891	0.031234189430917703	-0.01740276884835496	130.0	130.0	130.0	0	0	1	-29.999999999999996	29.999999999999996								
	2	5	9.089864610449325e-5	0.03345760822575424	-0.010876925581916382	130.0	130.0	130.0	0	0	1	-29.999999999999996	29.999999999999996								
	2	6	4.511005271863921e-5	0.025297712865466983	-0.004345216786241321	65.0	65.0	65.0	0	0	1	-29.999999999999996	29.999999999999996								
	4	6	0.003543431849461465	0.060052414004792345	-0.0051318769703519	90.0	90.0	90.0	0	0	1	-29.999999999999996	29.999999999999996								
	5	7	5.5984681896490124e-5	0.02757977598120465	-0.00421313266222105	70.0	70.0	70.0	0	0	1	-29.999999999999996	29.999999999999996								
	6	7	7.280098511248091e-5	0.032492227309832644	-0.003154822918018864	130.0	130.0	130.0	0	0	1	-29.999999999999996	29.999999999999996								
	6	8	7.124921648950763e-5	0.018309908410544744	-0.002070589533151756	32.0	32.0	32.0	0	0	1	-29.999999999999996	29.999999999999996								
	6	9	0.15605669107248912	0.7324916244435741	-0.00370119874918305	65.0	65.0	65.0	0	0	1	-29.999999999999996	29.999999999999996								
	6	10	0.20015585905076963	0.7632598461101733	-0.0031172754103503324	32.0	32.0	32.0	0	0	1	-29.999999999999996	29.999999999999996								
	9	11	0.005247461588746999	0.1095823787277569	-0.004199325772444464	65.0	65.0	65.0	0	0	1	-29.999999999999996	29.999999999999996								
	9	10	0.021123315595917392	0.29564855725685824	-0.004645324663025405	65.0	65.0	65.0	0	0	1	-29.999999999999996	29.999999999999996								
	4	12	0.04199726455777554	0.31543251290316177	-0.01076549879150301	65.0	65.0	65.0	0	0	1	-29.999999999999996	29.999999999999996								
	12	13	5.4849240800074375e-5	0.028758356430914938	-0.00239736142290607	65.0	65.0	65.0	0	0	1	-29.999999999999996	29.999999999999996								
	12	14	0.000366032239354179	0.050945971640066035	-0.01004765371538395	32.0	32.0	32.0	0	0	1	-29.999999999999996	29.999999999999996								
	12	15	0.005652939583614332	0.11931629814648317	-0.00444256720290499	32.0	32.0	32.0	0	0	1	-29.999999999999996	29.999999999999996								
	12	16	0.00039659739796579644	0.04131502433756372	-0.002333038933381512	32.0	32.0	32.0	0	0	1	-29.999999999999996	29.999999999999996								
	14	15	0.002638553936862431	0.09575464795901381	-0.0030845560329515907	16.0	16.0	16.0	0	0	1	-29.999999999999996	29.999999999999996								
	16	17	0.010360359879890722	0.1707568268379697	-0.002866914182340545	16.0	16.0	16.0	0	0	1	-29.999999999999996	29.999999999999996								
	15	18	0.0004055110582659694	0.045915282122959734	-0.0025120889491245433	16.0	16.0	16.0	0	0	1	-29.999999999999996	29.999999999999996								
	18	19	0.0028417452186403993	0.0827855623253288	-0.001959372549031726	16.0	16.0	16.0	0	0	1	-29.999999999999996	29.999999999999996								
	19	20	0.00017901554702915036	0.02321149052332726	-0.0019341916416638918	32.0	32.0	32.0	0	0	1	-29.999999999999996	29.999999999999996								
	10	20	8.927033701558694e-5	0.02571981462880568	-0.0022537975693450183	32.0	32.0	32.0	0	0	1	-29.999999999999996	29.999999999999996								
	10	17	5.482574738527448e-5	0.03172614915751593	-0.003233233542437576	32.0	32.0	32.0	0	0	1	-29.999999999999996	29.999999999999996								
	10	21	0.01786841272320387	0.161238000602398	-0.0037092575135049357	32.0	32.0	32.0	0	0	1	-29.999999999999996	29.999999999999996								
	10	22	2.427200562700494e-5	0.021107052902827425	-0.013207490373022705	32.0	32.0	32.0	0	0	1	-29.999999999999996	29.999999999999996								
	21	22	2.6738539412039426e-5	0.022371035317845574	-0.05986064650074889	32.0	32.0	32.0	0	0	1	-29.999999999999996	29.999999999999996								
	15	23	8.63612376822577e-5	0.036551184131739134	-0.006267247380435335	16.0	16.0	16.0	0	0	1	-29.999999999999996	29.999999999999996								
	22	24	0.0002237119028631892	0.06400822015570343	-0.02091798951203317	16.0	16.0	16.0	0	0	1	-29.999999999999996	29.999999999999996								
	23	24	0.0007275971041397549	0.07308955772660457	-0.032853144512219754	16.0	16.0	16.0	0	0	1	-29.999999999999996	29.999999999999996								
	24	25	0.041539955702152694	0.3184111900835906	-0.03755643822962184	16.0	16.0	16.0	0	0	1	-29.999999999999996	29.999999999999996								
	25	26	0.0005096646447052703	0.04915898355814868	-0.004723718585241256	16.0	16.0	16.0	0	0	1	-29.999999999999996	29.999999999999996								
	25	27	0.00040198954722954846	0.08671225742207436	-0.06882711292855136	16.0	16.0	16.0	0	0	1	-29.999999999999996	29.999999999999996								
	28	27	2.663190469194468e-5	0.018193178071855023	-0.002033032278802325	65.0	65.0	65.0	0	0	1	-29.999999999999996	29.999999999999996								
	27	29	0.00038384542182804256	0.08207961681397694	-0.02254712823975637	16.0	16.0	16.0	0	0	1	-29.999999999999996	29.999999999999996								
	27	30	0.00026722052583089346	0.06655791248983652	-0.027312973351922447	16.0	16.0	16.0	0	0	1	-29.999999999999996	29.999999999999996								
	29	30	0.0017504216782095333	0.09281818456980952	-0.16996889144089555	16.0	16.0	16.0	0	0	1	-29.999999999999996	29.999999999999996								
	8	28	2.0530994516649302e-5	0.01579801766831748	-0.0019852526208763107	32.0	32.0	32.0	0	0	1	-29.999999999999996	29.999999999999996								
	6	28	0.0012370359783258652	0.09239434231306935	-0.0023997854912018394	32.0	32.0	32.0	0	0	1	-29.999999999999996	29.999999999999996								
];

%%-----  OPF Data  -----%%
%% cost data
%    1    startup    shutdown    n    x1    y1    ...    xn    yn
%    2    startup    shutdown    n    c(n-1)    ...    c0
mpc.gencost = [
	2	0.0	0.0	3	0.02	2.0	0.0
	2	0.0	0.0	3	0.017500000000000005	1.75	0.0
	2	0.0	0.0	3	0.0625	1.0	0.0
	2	0.0	0.0	3	0.00834	3.25	0.0
	2	0.0	0.0	3	0.025	3.0	0.0
	2	0.0	0.0	3	0.025	3.0	0.0
];

