%% MATPOWER Case Format : Version 2
function mpc = pglib_opf_case200_tamu
mpc.version = '2';

%%-----  Power Flow Data  -----%%
%% system MVA base
mpc.baseMVA = 100.0;
%% bus data
%    bus_i    type    Pd    Qd    Gs    Bs    area    Vm    Va    baseKV    zone    Vmax    Vmin
mpc.bus = [
	1	1	0.0	0.0	0.0	0.0	1	1.0	0.0	115.0	2	1.1	0.9				
	2	1	7.39	2.1	0.0	0.0	1	1.0	0.0	115.0	2	1.1	0.9				
	3	1	0.0	0.0	0.0	0.0	1	1.0	0.0	115.0	4	1.1	0.9				
	4	1	1.7000000000000002	0.48	0.0	0.0	1	1.0	0.0	115.0	4	1.1	0.9				
	5	1	0.0	0.0	0.0	0.0	1	1.0	0.0	115.0	6	1.1	0.9				
	6	1	7.95	2.26	0.0	0.0	1	1.0	0.0	115.0	6	1.1	0.9				
	7	1	0.0	0.0	0.0	0.0	1	1.0	0.0	115.0	2	1.1	0.9				
	8	1	23.74	6.77	0.0	0.0	1	1.0	0.0	115.0	2	1.1	0.9				
	9	1	0.0	0.0	0.0	0.0	1	1.0	0.0	115.0	2	1.1	0.9				
	10	1	42.68	12.16	0.0	0.0	1	1.0	0.0	115.0	2	1.1	0.9				
	11	1	0.0	0.0	0.0	0.0	1	1.0	0.0	115.0	4	1.1	0.9				
	12	1	0.3	0.09	0.0	0.0	1	1.0	0.0	115.0	4	1.1	0.9				
	13	1	2.52	0.72	0.0	0.0	1	1.0	0.0	115.0	4	1.1	0.9				
	14	1	0.0	0.0	0.0	0.0	1	1.0	0.0	230.0	4	1.1	0.9				
	15	1	0.0	0.0	0.0	30.0	1	1.0	0.0	115.0	4	1.1	0.9				
	16	1	44.76	12.76	0.0	0.0	1	1.0	0.0	115.0	4	1.1	0.9				
	17	1	0.0	0.0	0.0	0.0	1	1.0	0.0	115.0	4	1.1	0.9				
	18	1	0.71	0.2	0.0	0.0	1	1.0	0.0	115.0	4	1.1	0.9				
	19	1	0.77	0.22	0.0	0.0	1	1.0	0.0	115.0	4	1.1	0.9				
	20	1	1.13	0.32	0.0	0.0	1	1.0	0.0	115.0	4	1.1	0.9				
	21	1	4.61	1.31	0.0	0.0	1	1.0	0.0	115.0	4	1.1	0.9				
	22	1	0.0	0.0	0.0	0.0	1	1.0	0.0	115.0	4	1.1	0.9				
	23	1	1.41	0.4	0.0	0.0	1	1.0	0.0	115.0	4	1.1	0.9				
	24	1	2.4	0.68	0.0	0.0	1	1.0	0.0	115.0	4	1.1	0.9				
	25	1	0.0	0.0	0.0	0.0	1	1.0	0.0	115.0	6	1.1	0.9				
	26	1	1.35	0.39	0.0	0.0	1	1.0	0.0	115.0	6	1.1	0.9				
	27	1	0.0	0.0	0.0	0.0	1	1.0	0.0	115.0	4	1.1	0.9				
	28	1	2.33	0.67	0.0	0.0	1	1.0	0.0	115.0	4	1.1	0.9				
	29	1	0.0	0.0	0.0	0.0	1	1.0	0.0	115.0	2	1.1	0.9				
	30	1	59.089999999999996	16.84	0.0	0.0	1	1.0	0.0	115.0	2	1.1	0.9				
	31	1	0.0	0.0	0.0	0.0	1	1.0	0.0	115.0	7	1.1	0.9				
	32	1	0.51	0.15	0.0	0.0	1	1.0	0.0	115.0	7	1.1	0.9				
	33	1	6.4399999999999995	1.8399999999999999	0.0	0.0	1	1.0	0.0	115.0	7	1.1	0.9				
	34	1	0.0	0.0	0.0	0.0	1	1.0	0.0	115.0	4	1.1	0.9				
	35	1	20.76	5.92	0.0	0.0	1	1.0	0.0	115.0	4	1.1	0.9				
	36	1	0.0	0.0	0.0	0.0	1	1.0	0.0	115.0	7	1.1	0.9				
	37	1	3.5699999999999994	1.02	0.0	0.0	1	1.0	0.0	115.0	7	1.1	0.9				
	38	1	29.81	8.5	0.0	0.0	1	1.0	0.0	115.0	7	1.1	0.9				
	39	1	7.41	2.11	0.0	0.0	1	1.0	0.0	115.0	4	1.1	0.9				
	40	1	2.04	0.58	0.0	0.0	1	1.0	0.0	115.0	4	1.1	0.9				
	41	1	38.34	10.93	0.0	0.0	1	1.0	0.0	115.0	5	1.1	0.9				
	42	1	10.62	3.03	0.0	0.0	1	1.0	0.0	115.0	4	1.1	0.9				
	43	1	2.09	0.59	0.0	0.0	1	1.0	0.0	115.0	2	1.1	0.9				
	44	1	4.15	1.18	0.0	0.0	1	1.0	0.0	115.0	4	1.1	0.9				
	45	1	0.0	0.0	0.0	0.0	1	1.0	0.0	230.0	7	1.1	0.9				
	46	1	6.34	1.81	0.0	0.0	1	1.0	0.0	115.0	7	1.1	0.9				
	47	1	1.54	0.44	0.0	0.0	1	1.0	0.0	115.0	4	1.1	0.9				
	48	1	1.82	0.52	0.0	0.0	1	1.0	0.0	115.0	6	1.1	0.9				
	49	2	0.0	0.0	0.0	0.0	1	1.0	0.0	13.8	6	1.1	0.9				
	50	2	0.0	0.0	0.0	0.0	1	1.0	0.0	13.8	6	1.1	0.9				
	51	2	0.0	0.0	0.0	0.0	1	1.0	0.0	13.8	6	1.1	0.9				
	52	2	0.0	0.0	0.0	0.0	1	1.0	0.0	13.8	6	1.1	0.9				
	53	2	0.0	0.0	0.0	0.0	1	1.0	0.0	13.8	6	1.1	0.9				
	54	1	2.66	0.76	0.0	0.0	1	1.0	0.0	115.0	4	1.1	0.9				
	55	1	0.0	0.0	0.0	0.0	1	1.0	0.0	230.0	7	1.1	0.9				
	56	1	1.31	0.37	0.0	0.0	1	1.0	0.0	115.0	7	1.1	0.9				
	57	1	2.82	0.8	0.0	0.0	1	1.0	0.0	115.0	4	1.1	0.9				
	58	1	4.23	1.21	0.0	0.0	1	1.0	0.0	115.0	7	1.1	0.9				
	59	1	4.73	1.35	0.0	0.0	1	1.0	0.0	115.0	2	1.1	0.9				
	60	1	3.8	1.08	0.0	0.0	1	1.0	0.0	115.0	2	1.1	0.9				
	61	1	20.55	5.86	0.0	0.0	1	1.0	0.0	115.0	7	1.1	0.9				
	62	1	21.41	6.1	0.0	0.0	1	1.0	0.0	115.0	4	1.1	0.9				
	63	1	7.980000000000001	2.27	0.0	0.0	1	1.0	0.0	115.0	4	1.1	0.9				
	64	1	0.0	0.0	0.0	0.0	1	1.0	0.0	115.0	6	1.1	0.9				
	65	2	0.0	0.0	0.0	0.0	1	1.0	0.0	13.8	6	1.1	0.9				
	66	1	0.0	0.0	0.0	0.0	1	1.0	0.0	115.0	4	1.1	0.9				
	67	2	0.0	0.0	0.0	0.0	1	1.0	0.0	13.8	4	1.1	0.9				
	68	2	0.0	0.0	0.0	0.0	1	1.0	0.0	13.8	4	1.1	0.9				
	69	2	0.0	0.0	0.0	0.0	1	1.0	0.0	13.8	4	1.1	0.9				
	70	2	0.0	0.0	0.0	0.0	1	1.0	0.0	13.8	4	1.1	0.9				
	71	2	0.0	0.0	0.0	0.0	1	1.0	0.0	13.8	4	1.1	0.9				
	72	2	0.0	0.0	0.0	0.0	1	1.0	0.0	13.8	4	1.1	0.9				
	73	2	0.0	0.0	0.0	0.0	1	1.0	0.0	13.8	4	1.1	0.9				
	74	1	18.76	5.35	0.0	0.0	1	1.0	0.0	115.0	6	1.1	0.9				
	75	1	3.6000000000000005	1.03	0.0	0.0	1	1.0	0.0	115.0	2	1.1	0.9				
	76	2	0.0	0.0	0.0	0.0	1	1.0	0.0	13.8	2	1.1	0.9				
	77	2	0.0	0.0	0.0	0.0	1	1.0	0.0	13.8	2	1.1	0.9				
	78	1	0.0	0.0	0.0	0.0	1	1.0	0.0	13.8	2	1.1	0.9				
	79	1	0.0	0.0	0.0	0.0	1	1.0	0.0	13.8	2	1.1	0.9				
	80	1	1.48	0.42	0.0	0.0	1	1.0	0.0	115.0	5	1.1	0.9				
	81	1	0.0	0.0	0.0	0.0	1	1.0	0.0	230.0	6	1.1	0.9				
	82	1	7.6	2.17	0.0	0.0	1	1.0	0.0	115.0	6	1.1	0.9				
	83	1	3.1400000000000006	0.89	0.0	0.0	1	1.0	0.0	115.0	7	1.1	0.9				
	84	1	3.75	1.07	0.0	0.0	1	1.0	0.0	115.0	2	1.1	0.9				
	85	1	4.83	1.38	0.0	0.0	1	1.0	0.0	115.0	4	1.1	0.9				
	86	1	8.25	2.35	0.0	0.0	1	1.0	0.0	115.0	2	1.1	0.9				
	87	1	0.0	0.0	0.0	0.0	1	1.0	0.0	230.0	3	1.1	0.9				
	88	1	49.34	14.06	0.0	0.0	1	1.0	0.0	115.0	3	1.1	0.9				
	89	1	62.85000000000001	17.91	0.0	0.0	1	1.0	0.0	115.0	7	1.1	0.9				
	90	2	0.0	0.0	0.0	0.0	1	1.0	0.0	13.8	7	1.1	0.9				
	91	2	0.0	0.0	0.0	0.0	1	1.0	0.0	13.8	7	1.1	0.9				
	92	1	0.0	0.0	0.0	0.0	1	1.0	0.0	13.8	7	1.1	0.9				
	93	1	3.06	0.8699999999999999	0.0	0.0	1	1.0	0.0	115.0	4	1.1	0.9				
	94	2	0.0	0.0	0.0	0.0	1	1.0	0.0	13.8	4	1.1	0.9				
	95	1	3.0	0.8500000000000001	0.0	30.0	1	1.0	0.0	115.0	7	1.1	0.9				
	96	1	2.96	0.84	0.0	0.0	1	1.0	0.0	115.0	7	1.1	0.9				
	97	1	7.33	2.09	0.0	0.0	1	1.0	0.0	115.0	2	1.1	0.9				
	98	1	0.0	0.0	0.0	0.0	1	1.0	0.0	230.0	2	1.1	0.9				
	99	1	12.17	3.47	0.0	0.0	1	1.0	0.0	115.0	2	1.1	0.9				
	100	1	37.39	10.66	0.0	80.0	1	1.0	0.0	115.0	5	1.1	0.9				
	101	1	0.52	0.15	0.0	0.0	1	1.0	0.0	115.0	2	1.1	0.9				
	102	1	0.0	0.0	0.0	0.0	1	1.0	0.0	230.0	7	1.1	0.9				
	103	1	0.0	0.0	0.0	0.0	1	1.0	0.0	115.0	7	1.1	0.9				
	104	2	0.0	0.0	0.0	0.0	1	1.0	0.0	13.8	7	1.1	0.9				
	105	2	0.0	0.0	0.0	0.0	1	1.0	0.0	13.8	7	1.1	0.9				
	106	1	2.06	0.59	0.0	0.0	1	1.0	0.0	115.0	7	1.1	0.9				
	107	1	52.56000000000001	14.980000000000002	0.0	0.0	1	1.0	0.0	115.0	7	1.1	0.9				
	108	1	9.42	2.68	0.0	0.0	1	1.0	0.0	115.0	2	1.1	0.9				
	109	1	5.16	1.47	0.0	0.0	1	1.0	0.0	115.0	4	1.1	0.9				
	110	1	10.86	3.09	0.0	0.0	1	1.0	0.0	115.0	2	1.1	0.9				
	111	1	8.82	2.51	0.0	0.0	1	1.0	0.0	115.0	5	1.1	0.9				
	112	1	0.0	0.0	0.0	0.0	1	1.0	0.0	230.0	7	1.1	0.9				
	113	1	0.0	0.0	0.0	0.0	1	1.0	0.0	115.0	7	1.1	0.9				
	114	2	0.0	0.0	0.0	0.0	1	1.0	0.0	13.8	7	1.1	0.9				
	115	2	0.0	0.0	0.0	0.0	1	1.0	0.0	13.8	7	1.1	0.9				
	116	1	0.0	0.0	0.0	0.0	1	1.0	0.0	230.0	2	1.1	0.9				
	117	1	34.08	9.71	0.0	0.0	1	1.0	0.0	115.0	2	1.1	0.9				
	118	1	3.94	1.12	0.0	0.0	1	1.0	0.0	115.0	2	1.1	0.9				
	119	1	17.55	5.0	0.0	0.0	1	1.0	0.0	115.0	2	1.1	0.9				
	120	1	1.8000000000000003	0.51	0.0	0.0	1	1.0	0.0	115.0	4	1.1	0.9				
	121	1	0.0	0.0	0.0	0.0	1	1.0	0.0	230.0	7	1.1	0.9				
	122	1	15.439999999999998	4.4	0.0	0.0	1	1.0	0.0	115.0	7	1.1	0.9				
	123	1	0.0	0.0	0.0	0.0	1	1.0	0.0	230.0	2	1.1	0.9				
	124	1	0.0	0.0	0.0	0.0	1	1.0	0.0	115.0	2	1.1	0.9				
	125	2	0.0	0.0	0.0	0.0	1	1.0	0.0	13.8	2	1.1	0.9				
	126	2	0.0	0.0	0.0	0.0	1	1.0	0.0	13.8	2	1.1	0.9				
	127	2	0.0	0.0	0.0	0.0	1	1.0	0.0	13.8	2	1.1	0.9				
	128	1	0.0	0.0	0.0	0.0	1	1.0	0.0	230.0	7	1.1	0.9				
	129	1	77.24	22.01	0.0	0.0	1	1.0	0.0	115.0	7	1.1	0.9				
	130	1	4.4	1.25	0.0	0.0	1	1.0	0.0	115.0	7	1.1	0.9				
	131	1	30.25	8.62	0.0	0.0	1	1.0	0.0	115.0	2	1.1	0.9				
	132	1	26.96	7.68	0.0	0.0	1	1.0	0.0	115.0	2	1.1	0.9				
	133	1	0.0	0.0	0.0	0.0	1	1.0	0.0	230.0	2	1.1	0.9				
	134	1	0.0	0.0	0.0	0.0	1	1.0	0.0	115.0	2	1.1	0.9				
	135	2	0.0	0.0	0.0	0.0	1	1.0	0.0	13.8	2	1.1	0.9				
	136	2	0.0	0.0	0.0	0.0	1	1.0	0.0	13.8	2	1.1	0.9				
	137	1	1.16	0.33	0.0	0.0	1	1.0	0.0	115.0	4	1.1	0.9				
	138	1	2.09	0.6	0.0	0.0	1	1.0	0.0	115.0	6	1.1	0.9				
	139	1	6.84	1.95	0.0	0.0	1	1.0	0.0	115.0	2	1.1	0.9				
	140	1	8.21	2.34	0.0	0.0	1	1.0	0.0	115.0	2	1.1	0.9				
	141	1	1.42	0.4099999999999999	0.0	0.0	1	1.0	0.0	115.0	2	1.1	0.9				
	142	1	37.26	10.62	0.0	0.0	1	1.0	0.0	115.0	2	1.1	0.9				
	143	1	26.780000000000005	7.629999999999999	0.0	0.0	1	1.0	0.0	115.0	5	1.1	0.9				
	144	1	9.05	2.58	0.0	0.0	1	1.0	0.0	115.0	2	1.1	0.9				
	145	1	17.54	5.0	0.0	0.0	1	1.0	0.0	115.0	3	1.1	0.9				
	146	1	0.0	0.0	0.0	0.0	1	1.0	0.0	115.0	7	1.1	0.9				
	147	2	0.0	0.0	0.0	0.0	1	1.0	0.0	13.8	7	1.1	0.9				
	148	1	32.02	9.13	0.0	0.0	1	1.0	0.0	115.0	2	1.1	0.9				
	149	1	0.0	0.0	0.0	0.0	1	1.0	0.0	230.0	3	1.1	0.9				
	150	1	0.0	0.0	0.0	0.0	1	1.0	0.0	115.0	3	1.1	0.9				
	151	2	0.0	0.0	0.0	0.0	1	1.0	0.0	13.8	3	1.1	0.9				
	152	2	0.0	0.0	0.0	0.0	1	1.0	0.0	13.8	3	1.1	0.9				
	153	2	0.0	0.0	0.0	0.0	1	1.0	0.0	13.8	3	1.1	0.9				
	154	2	0.0	0.0	0.0	0.0	1	1.0	0.0	13.8	3	1.1	0.9				
	155	2	0.0	0.0	0.0	0.0	1	1.0	0.0	13.8	3	1.1	0.9				
	156	1	0.0	0.0	0.0	0.0	1	1.0	0.0	230.0	2	1.1	0.9				
	157	1	14.760000000000002	4.21	0.0	0.0	1	1.0	0.0	115.0	2	1.1	0.9				
	158	1	8.97	2.56	0.0	0.0	1	1.0	0.0	115.0	4	1.1	0.9				
	159	1	1.39	0.4	0.0	0.0	1	1.0	0.0	115.0	4	1.1	0.9				
	160	1	0.0	0.0	0.0	0.0	1	1.0	0.0	115.0	4	1.1	0.9				
	161	1	0.0	0.0	0.0	0.0	1	1.0	0.0	13.8	4	1.1	0.9				
	162	1	1.45	0.4099999999999999	0.0	0.0	1	1.0	0.0	115.0	2	1.1	0.9				
	163	1	45.8	13.05	0.0	0.0	1	1.0	0.0	115.0	5	1.1	0.9				
	164	1	0.0	0.0	0.0	0.0	1	1.0	0.0	13.8	5	1.1	0.9				
	165	1	0.0	0.0	0.0	0.0	1	1.0	0.0	13.8	5	1.1	0.9				
	166	1	0.0	0.0	0.0	0.0	1	1.0	0.0	13.8	5	1.1	0.9				
	167	2	0.0	0.0	0.0	0.0	1	1.0	0.0	13.8	5	1.1	0.9				
	168	1	0.0	0.0	0.0	0.0	1	1.0	0.0	13.8	5	1.1	0.9				
	169	1	0.0	0.0	0.0	0.0	1	1.0	0.0	13.8	5	1.1	0.9				
	170	2	0.0	0.0	0.0	0.0	1	1.0	0.0	13.8	5	1.1	0.9				
	171	1	7.9399999999999995	2.26	0.0	0.0	1	1.0	0.0	115.0	6	1.1	0.9				
	172	1	5.38	1.53	0.0	0.0	1	1.0	0.0	115.0	5	1.1	0.9				
	173	1	8.71	2.48	0.0	0.0	1	1.0	0.0	115.0	5	1.1	0.9				
	174	1	2.77	0.79	0.0	0.0	1	1.0	0.0	115.0	5	1.1	0.9				
	175	1	7.31	2.08	0.0	0.0	1	1.0	0.0	115.0	5	1.1	0.9				
	176	1	19.01	5.42	0.0	0.0	1	1.0	0.0	115.0	3	1.1	0.9				
	177	1	11.29	3.2199999999999998	0.0	0.0	1	1.0	0.0	115.0	7	1.1	0.9				
	178	1	0.0	0.0	0.0	0.0	1	1.0	0.0	230.0	5	1.1	0.9				
	179	1	23.61	6.7299999999999995	0.0	0.0	1	1.0	0.0	115.0	5	1.1	0.9				
	180	1	7.739999999999999	2.21	0.0	0.0	1	1.0	0.0	115.0	5	1.1	0.9				
	181	1	47.98	13.669999999999998	0.0	0.0	1	1.0	0.0	115.0	4	1.1	0.9				
	182	2	0.0	0.0	0.0	0.0	1	1.0	0.0	13.8	4	1.1	0.9				
	183	2	0.0	0.0	0.0	0.0	1	1.0	0.0	13.8	4	1.1	0.9				
	184	1	10.69	3.05	0.0	0.0	1	1.0	0.0	115.0	5	1.1	0.9				
	185	1	10.79	3.07	0.0	0.0	1	1.0	0.0	115.0	3	1.1	0.9				
	186	1	2.1	0.6	0.0	0.0	1	1.0	0.0	115.0	2	1.1	0.9				
	187	1	0.0	0.0	0.0	0.0	1	1.0	0.0	230.0	7	1.1	0.9				
	188	1	0.0	0.0	0.0	0.0	1	1.0	0.0	115.0	7	1.1	0.9				
	189	3	0.0	0.0	0.0	0.0	1	1.0	0.0	13.8	7	1.1	0.9				
	190	1	16.79	4.78	0.0	0.0	1	1.0	0.0	115.0	6	1.1	0.9				
	191	1	7.23	2.06	0.0	0.0	1	1.0	0.0	115.0	5	1.1	0.9				
	192	1	52.739999999999995	15.03	0.0	0.0	1	1.0	0.0	115.0	7	1.1	0.9				
	193	1	21.99	6.27	0.0	0.0	1	1.0	0.0	115.0	2	1.1	0.9				
	194	1	37.57	10.71	0.0	50.0	1	1.0	0.0	115.0	3	1.1	0.9				
	195	1	0.0	0.0	0.0	0.0	1	1.0	0.0	115.0	6	1.1	0.9				
	196	1	0.0	0.0	0.0	0.0	1	1.0	0.0	13.8	6	1.1	0.9				
	197	1	0.0	0.0	0.0	0.0	1	1.0	0.0	13.8	6	1.1	0.9				
	198	1	5.37	1.53	0.0	0.0	1	1.0	0.0	115.0	2	1.1	0.9				
	199	1	4.26	1.21	0.0	0.0	1	1.0	0.0	115.0	6	1.1	0.9				
	200	1	9.34	2.66	0.0	0.0	1	1.0	0.0	115.0	4	1.1	0.9				
];

%% generator data
%    bus    Pg    Qg    Qmax    Qmin    Vg    mBase    status    Pmax    Pmin    Pc1    Pc2    Qc1min    Qc1max    Qc2min    Qc2max    ramp_agc    ramp_10    ramp_30    ramp_q    apf
mpc.gen = [
	49	2.945	0.78	2.11	-0.55	1.0	5.44	1	4.53	1.36															
	50	2.945	0.78	2.11	-0.55	1.0	5.44	1	4.53	1.36															
	51	2.945	0.78	2.11	-0.55	1.0	5.44	1	4.53	1.36															
	52	2.945	0.78	2.11	-0.55	1.0	5.44	1	4.53	1.36															
	53	5.895	1.56	4.23	-1.11	1.0	10.88	1	9.07	2.72															
	65	86.5	5.19	32.04	-21.66	1.0	180.48	1	86.5	86.5															
	67	3.055	0.8100000000000002	2.19	-0.57	1.0	5.64	1	4.7	1.41															
	68	18.15	4.8	13.01	-3.4099999999999997	1.0	33.5	1	27.92	8.38															
	69	18.15	4.8	13.01	-3.4099999999999997	1.0	33.5	1	27.92	8.38															
	70	18.15	4.8	13.01	-3.4099999999999997	1.0	33.5	1	27.92	8.38															
	71	18.15	4.8	13.01	-3.4099999999999997	1.0	33.5	1	27.92	8.38															
	72	18.15	4.8	13.01	-3.4099999999999997	1.0	33.5	1	27.92	8.38															
	73	18.15	4.8	13.01	-3.4099999999999997	1.0	33.5	1	27.92	8.38															
	76	2.6	0.8	2.04	-0.44	1.0	4.8	1	4.0	1.2															
	77	1.56	0.475	1.22	-0.27	1.0	2.88	1	2.4	0.72															
	78	0.0	0.0	9.16	-2.0	1.0	21.6	0	18.0	5.4															
	79	0.0	0.0	9.16	-2.0	1.0	21.6	0	18.0	5.4															
	90	2.08	0.635	1.63	-0.36	1.0	3.84	1	3.2	0.96															
	91	3.25	1.0	2.55	-0.55	1.0	6.0	1	5.0	1.5															
	92	0.0	0.0	3.2099999999999995	-0.7	1.0	7.56	0	6.3	1.8900000000000001															
	94	11.7	3.095	8.39	-2.2	1.0	21.6	1	18.0	5.4															
	104	67.6	3.415	21.09	-14.26	1.0	118.8	1	67.6	67.6															
	105	154.8	6.83	42.17	-28.51	1.0	237.6	1	154.8	154.8															
	114	1.4	0.06	0.36	-0.24	1.0	2.04	1	1.4	1.4															
	115	133.5	5.175	31.95	-21.6	1.0	180.0	1	133.5	133.5															
	125	84.535	22.365	60.6	-15.869999999999997	1.0	156.06	1	130.05	39.02															
	126	84.535	22.365	60.6	-15.869999999999997	1.0	156.06	1	130.05	39.02															
	127	84.535	22.365	60.6	-15.869999999999997	1.0	156.06	1	130.05	39.02															
	135	290.16	76.78	208.02	-54.459999999999994	1.0	535.68	1	446.4	133.92															
	136	290.16	76.78	208.02	-54.459999999999994	1.0	535.68	1	446.4	133.92															
	147	92.4	3.47	21.41	-14.469999999999999	1.0	120.6	1	92.4	92.4															
	151	3.51	0.93	2.52	-0.66	1.0	6.48	1	5.4	1.6200000000000003															
	152	50.195	13.285	35.99	-9.42	1.0	92.67	1	77.22	23.17															
	153	50.195	13.285	35.99	-9.42	1.0	92.67	1	77.22	23.17															
	154	50.195	13.285	35.99	-9.42	1.0	92.67	1	77.22	23.17															
	155	50.195	13.285	35.99	-9.42	1.0	92.67	1	77.22	23.17															
	161	0.0	0.0	70.55	-15.380000000000003	1.0	166.32	0	138.6	41.58															
	164	0.0	0.0	6.11	-1.33	1.0	14.4	0	12.0	3.6000000000000005															
	165	0.0	0.0	13.23	-2.89	1.0	31.2	0	26.0	7.8															
	166	0.0	0.0	4.78	-1.04	1.0	11.28	0	9.4	2.82															
	167	6.11	1.87	4.78	-1.04	1.0	11.28	1	9.4	2.82															
	168	0.0	0.0	4.78	-1.04	1.0	11.28	0	9.4	2.82															
	169	0.0	0.0	4.78	-1.04	1.0	11.28	0	9.4	2.82															
	170	6.11	1.87	4.78	-1.04	1.0	11.28	1	9.4	2.82															
	182	11.375	3.01	8.16	-2.14	1.0	21.0	1	17.5	5.25															
	183	17.29	4.575	12.4	-3.25	1.0	31.92	1	26.6	7.980000000000001															
	189	369.95	81.39	209.45	-46.67	1.0	682.98	1	569.15	170.75															
	196	0.0	0.0	34.36	-7.490000000000001	1.0	81.0	0	67.5	20.25															
	197	0.0	0.0	34.36	-7.490000000000001	1.0	81.0	0	67.5	20.25															
];

%% branch data
%    f_bus    t_bus    r    x    b    rateA    rateB    rateC    ratio    angle    status    angmin    angmax
mpc.branch = [
	2	1	1.9708796959242334e-6	0.0037206828818917466	-0.001491063693803525	100.0	100.0	100.0	0	0	1	-29.999999999999996	29.999999999999996								
	1	119	4.994375527617544e-6	0.005923879752776746	-0.001491063693803525	221.1	221.1	221.1	0	0	1	-29.999999999999996	29.999999999999996								
	124	1	5.214027497456692e-6	0.006052754779226252	-0.0014910685144212236	221.1	221.1	221.1	0	0	1	-29.999999999999996	29.999999999999996								
	193	1	0.00012884879123754075	0.03008828605923938	-0.001491063693803525	221.1	221.1	221.1	0	0	1	-29.999999999999996	29.999999999999996								
	4	3	0.0007386839747380586	0.0034874510368661047	-0.001491063693803525	100.0	100.0	100.0	0	0	1	-29.999999999999996	29.999999999999996								
	57	3	7.007179749820165e-5	0.022188843570766267	-0.001491063693803525	221.1	221.1	221.1	0	0	1	-29.999999999999996	29.999999999999996								
	3	137	2.377669675588583e-5	0.012925213011122715	-0.001491063693803525	221.1	221.1	221.1	0	0	1	-29.999999999999996	29.999999999999996								
	6	5	1.978452286858312e-6	0.0037279792071678902	-0.001491069592697447	100.0	100.0	100.0	0	0	1	-29.999999999999996	29.999999999999996								
	48	5	3.114519485314035e-5	0.014793181224324074	-0.001491063693803525	221.1	221.1	221.1	0	0	1	-29.999999999999996	29.999999999999996								
	5	64	1.287051821312792e-5	0.00950965024436199	-0.0014910874290180213	221.1	221.1	221.1	0	0	1	-29.999999999999996	29.999999999999996								
	8	7	7.827836795813989e-7	0.0023451975651938876	-0.001491063693803525	100.0	100.0	100.0	0	0	1	-29.999999999999996	29.999999999999996								
	7	86	3.462366229980291e-5	0.015592437281371808	-0.001491063693803525	221.1	221.1	221.1	0	0	1	-29.999999999999996	29.999999999999996								
	7	101	3.0130284309248933e-6	0.004601159765446555	-0.001491063693803525	221.1	221.1	221.1	0	0	1	-29.999999999999996	29.999999999999996								
	7	148	2.523382718194609e-5	0.013315343445820364	-0.001491063693803525	221.1	221.1	221.1	0	0	1	-29.999999999999996	29.999999999999996								
	10	9	2.0883088966391915e-6	0.0038305711306195023	-0.001491067779257064	100.0	100.0	100.0	0	0	1	-29.999999999999996	29.999999999999996								
	9	124	5.06147728790708e-6	0.005963558560674134	-0.0014910719694458956	221.1	221.1	221.1	0	0	1	-29.999999999999996	29.999999999999996								
	131	9	0.00028596121954586147	0.04482401396970892	-0.0014910760867869134	221.1	221.1	221.1	0	0	1	-29.999999999999996	29.999999999999996								
	9	141	1.3140514240193801e-5	0.009608741750270504	-0.001491063693803525	221.1	221.1	221.1	0	0	1	-29.999999999999996	29.999999999999996								
	9	193	0.00013580696552701314	0.030888843200908428	-0.0014910637269885533	221.1	221.1	221.1	0	0	1	-29.999999999999996	29.999999999999996								
	12	11	0.0005620842719851991	0.003790195890213937	-0.002964164970054243	100.0	100.0	100.0	0	0	1	-29.999999999999996	29.999999999999996								
	13	11	0.0005773546554003451	0.0037384309278540103	-0.0014911293754040346	100.0	100.0	100.0	0	0	1	-29.999999999999996	29.999999999999996								
	11	15	0.0002601141665246607	0.04274945677888771	-0.0014930782957329988	221.1	221.1	221.1	0	0	1	-29.999999999999996	29.999999999999996								
	11	93	0.0014680110707620965	0.10155085808536286	-0.001491162108849789	221.1	221.1	221.1	0	0	1	-29.999999999999996	29.999999999999996								
	158	11	0.0006524706190101346	0.06770533041726455	-0.0014911107076591044	221.1	221.1	221.1	0	0	1	-29.999999999999996	29.999999999999996								
	15	14	9.82533381979506e-6	0.008308840533169033	-0.15463455660612802	300.0	300.0	300.0	1.0	0.0	1	-29.999999999999996	29.999999999999996								
	14	121	1.0164011673107443e-5	0.008450828976133739	-0.0014916033356070012	402.36	402.36	402.36	0	0	1	-29.999999999999996	29.999999999999996								
	14	149	0.0004874634571808499	0.05852243557251752	-0.0014912337385875817	402.36	402.36	402.36	0	0	1	-29.999999999999996	29.999999999999996								
	16	15	1.018435768916802e-6	0.0026750510746601027	-0.0014913421225306517	100.0	100.0	100.0	0	0	1	-29.999999999999996	29.999999999999996								
	18	17	0.0005141702519113643	0.00421104420573191	-0.001491063693803525	100.0	100.0	100.0	0	0	1	-29.999999999999996	29.999999999999996								
	19	17	0.0005275748756479761	0.0032846170490942574	-0.001491063693803525	100.0	100.0	100.0	0	0	1	-29.999999999999996	29.999999999999996								
	20	17	0.0006169740335720989	0.003555310089359365	-0.001491063693803525	100.0	100.0	100.0	0	0	1	-29.999999999999996	29.999999999999996								
	21	17	2.7236747285611277e-6	0.00436622603961264	-0.001491063693803525	100.0	100.0	100.0	0	0	1	-29.999999999999996	29.999999999999996								
	109	17	6.878413858408497e-6	0.006952009539417377	-0.001491063693803525	221.1	221.1	221.1	0	0	1	-29.999999999999996	29.999999999999996								
	17	120	8.149920593648683e-6	0.0075673234542937545	-0.001491063693803525	221.1	221.1	221.1	0	0	1	-29.999999999999996	29.999999999999996								
	23	22	0.0005895007852366354	0.003411188767760492	-0.001491063693803525	100.0	100.0	100.0	0	0	1	-29.999999999999996	29.999999999999996								
	24	22	0.0006440035830734111	0.0031343211962014173	-0.001491063693803525	100.0	100.0	100.0	0	0	1	-29.999999999999996	29.999999999999996								
	22	27	0.004837258605592477	0.06503295329279099	-0.001491063693803525	221.1	221.1	221.1	0	0	1	-29.999999999999996	29.999999999999996								
	158	22	4.6357668245559145e-5	0.01804748422935749	-0.001491063693803525	221.1	221.1	221.1	0	0	1	-29.999999999999996	29.999999999999996								
	26	25	0.0005936666465795776	0.0032510711066719307	-0.0014912713684251272	100.0	100.0	100.0	0	0	1	-29.999999999999996	29.999999999999996								
	25	64	9.161511616090312e-6	0.008023251984046941	-0.0014912387747861243	221.1	221.1	221.1	0	0	1	-29.999999999999996	29.999999999999996								
	199	25	7.70324151495987e-6	0.007357048653943684	-0.0014911016583048148	221.1	221.1	221.1	0	0	1	-29.999999999999996	29.999999999999996								
	28	27	0.0004073586666066654	0.004031280997111172	-0.001491063693803525	100.0	100.0	100.0	0	0	1	-29.999999999999996	29.999999999999996								
	27	93	0.00022581780617349781	0.03983212262469105	-0.0014910760360259663	221.1	221.1	221.1	0	0	1	-29.999999999999996	29.999999999999996								
	27	158	0.0006991822268105636	0.07008569243473531	-0.0014910704340802175	221.1	221.1	221.1	0	0	1	-29.999999999999996	29.999999999999996								
	30	29	6.963347125541503e-7	0.002211946586346399	-0.0014910661684069226	100.0	100.0	100.0	0	0	1	-29.999999999999996	29.999999999999996								
	124	29	1.411050495244989e-5	0.009957215962440619	-0.0014910742612355898	221.1	221.1	221.1	0	0	1	-29.999999999999996	29.999999999999996								
	29	140	1.092274094852055e-5	0.008760564333543186	-0.0014910813363810903	221.1	221.1	221.1	0	0	1	-29.999999999999996	29.999999999999996								
	32	31	0.0006959458344071416	0.004173016939145681	-0.0014910902580385404	100.0	100.0	100.0	0	0	1	-29.999999999999996	29.999999999999996								
	33	31	2.081851399975975e-6	0.00382380192286581	-0.0014910818517620563	100.0	100.0	100.0	0	0	1	-29.999999999999996	29.999999999999996								
	177	31	3.337042383586042e-5	0.015312453016840638	-0.0014911320830060248	221.1	221.1	221.1	0	0	1	-29.999999999999996	29.999999999999996								
	192	31	0.0002311805599267306	0.02218798914083831	-0.001491063693803525	221.1	221.1	221.1	0	0	1	-29.999999999999996	29.999999999999996								
	35	34	1.2143530755539906e-6	0.0029210033540821535	-0.001491063693803525	100.0	100.0	100.0	0	0	1	-29.999999999999996	29.999999999999996								
	34	54	3.0335060802607268e-6	0.004616768280438937	-0.001491063693803525	221.1	221.1	221.1	0	0	1	-29.999999999999996	29.999999999999996								
	34	137	1.8709240723084058e-5	0.011465440865879601	-0.001491063693803525	221.1	221.1	221.1	0	0	1	-29.999999999999996	29.999999999999996								
	37	36	0.00030207592016736647	0.0034116921726123997	-0.001491063693803525	100.0	100.0	100.0	0	0	1	-29.999999999999996	29.999999999999996								
	38	36	8.192993888723316e-7	0.002399292870268139	-0.001491063693803525	100.0	100.0	100.0	0	0	1	-29.999999999999996	29.999999999999996								
	58	36	4.000779307922813e-5	0.016766139656523796	-0.0014910658881147128	221.1	221.1	221.1	0	0	1	-29.999999999999996	29.999999999999996								
	83	36	7.709454307090027e-6	0.0073600116402270516	-0.001491063693803525	221.1	221.1	221.1	0	0	1	-29.999999999999996	29.999999999999996								
	40	39	0.0005332455349233942	0.003193246844462486	-0.001491063693803525	100.0	100.0	100.0	0	0	1	-29.999999999999996	29.999999999999996								
	39	85	4.2355081971190764e-5	0.01725113906846196	-0.001491063693803525	221.1	221.1	221.1	0	0	1	-29.999999999999996	29.999999999999996								
	159	39	1.0968697247744212e-5	0.00877812506421401	-0.001491063693803525	221.1	221.1	221.1	0	0	1	-29.999999999999996	29.999999999999996								
	41	100	1.3289166631889223e-5	0.009663058468687591	-0.0014911699397293198	221.1	221.1	221.1	0	0	1	-29.999999999999996	29.999999999999996								
	41	163	3.5622572080485196e-5	0.015820440661899228	-0.001491078371029185	221.1	221.1	221.1	0	0	1	-29.999999999999996	29.999999999999996								
	41	180	1.2497363355258668e-5	0.009370781890632065	-0.0014910933425172086	221.1	221.1	221.1	0	0	1	-29.999999999999996	29.999999999999996								
	44	42	6.669220833695942e-5	0.021646886613404852	-0.001491063693803525	221.1	221.1	221.1	0	0	1	-29.999999999999996	29.999999999999996								
	181	42	0.00017420622037998297	0.034985833087922455	-0.001491063693803525	221.1	221.1	221.1	0	0	1	-29.999999999999996	29.999999999999996								
	43	84	5.7246551652880115e-5	0.020055771180153014	-0.001491075062943922	221.1	221.1	221.1	0	0	1	-29.999999999999996	29.999999999999996								
	43	132	8.500040245715767e-5	0.02443848113824462	-0.0014910689008847567	221.1	221.1	221.1	0	0	1	-29.999999999999996	29.999999999999996								
	44	200	4.443743801769336e-5	0.017670097460377916	-0.001491063693803525	221.1	221.1	221.1	0	0	1	-29.999999999999996	29.999999999999996								
	46	45	8.047927338239163e-6	0.007519842103458492	-0.0014910759105764284	160.0	160.0	160.0	1.0	0.0	1	-29.999999999999996	29.999999999999996								
	55	45	8.178684682851339e-5	0.02396946671283834	-0.0014911005737331744	402.36	402.36	402.36	0	0	1	-29.999999999999996	29.999999999999996								
	102	45	8.237752720424962e-6	0.007608010790391238	-0.0014911455270345223	402.36	402.36	402.36	0	0	1	-29.999999999999996	29.999999999999996								
	45	187	0.0004103202567689501	0.05369260003461628	-0.0014911881270404537	402.36	402.36	402.36	0	0	1	-29.999999999999996	29.999999999999996								
	61	46	0.0004997168840622239	0.05925024566282962	-0.0014910660501676102	221.1	221.1	221.1	0	0	1	-29.999999999999996	29.999999999999996								
	122	46	8.50507860769657e-6	0.007730466961910938	-0.001491063693803525	221.1	221.1	221.1	0	0	1	-29.999999999999996	29.999999999999996								
	47	54	8.189217182674486e-5	0.02398703538464558	-0.001491063693803525	221.1	221.1	221.1	0	0	1	-29.999999999999996	29.999999999999996								
	47	66	7.971340819992643e-5	0.023666124980971745	-0.0014910842429624784	221.1	221.1	221.1	0	0	1	-29.999999999999996	29.999999999999996								
	49	48	0.00013628862145065657	0.030944991992456688	-0.001491063693803525	28.9	28.9	28.9	1.0	0.0	1	-29.999999999999996	29.999999999999996								
	50	48	0.00013538446270687678	0.03084217668360062	-0.001491063693803525	28.7	28.7	28.7	1.0	0.0	1	-29.999999999999996	29.999999999999996								
	51	48	0.0001365138872599073	0.030970554701252206	-0.001491063693803525	24.3	24.3	24.3	1.0	0.0	1	-29.999999999999996	29.999999999999996								
	52	48	0.00013390930759698695	0.030673691366870506	-0.001491063693803525	24.3	24.3	24.3	1.0	0.0	1	-29.999999999999996	29.999999999999996								
	53	48	6.86425737662824e-5	0.02196143188332292	-0.001491063693803525	35.3	35.3	35.3	1.0	0.0	1	-29.999999999999996	29.999999999999996								
	48	74	2.403600504969072e-6	0.00410957760441377	-0.001491063693803525	221.1	221.1	221.1	0	0	1	-29.999999999999996	29.999999999999996								
	54	66	3.5241240386731896e-6	0.0049761272144585485	-0.001491063693803525	221.1	221.1	221.1	0	0	1	-29.999999999999996	29.999999999999996								
	56	55	0.1613471229830541	1.0524517197108172	-0.0014912114874728998	160.0	160.0	160.0	1.0	0.0	1	-29.999999999999996	29.999999999999996								
	81	55	2.672383581568114e-6	0.0043332762378156245	-0.0014910682453152337	402.36	402.36	402.36	0	0	1	-29.999999999999996	29.999999999999996								
	55	102	2.398433957476879e-6	0.0041051670161790545	-0.0014911174696479903	402.36	402.36	402.36	0	0	1	-29.999999999999996	29.999999999999996								
	55	112	0.00014246833930423828	0.0316386523569583	-0.0014910756072353242	402.36	402.36	402.36	0	0	1	-29.999999999999996	29.999999999999996								
	55	128	8.59164890623398e-5	0.024569234828023055	-0.001491094078569269	402.36	402.36	402.36	0	0	1	-29.999999999999996	29.999999999999996								
	56	103	0.0002897494898992083	0.04511952074958806	-0.020081034333361433	221.1	221.1	221.1	0	0	1	-29.999999999999996	29.999999999999996								
	57	159	4.9531992325411936e-5	0.018655056949696002	-0.001491063693803525	221.1	221.1	221.1	0	0	1	-29.999999999999996	29.999999999999996								
	95	58	2.8453031712394985e-5	0.014139371715582511	-0.0014912284660220049	221.1	221.1	221.1	0	0	1	-29.999999999999996	29.999999999999996								
	177	58	4.6477221283444485e-5	0.018071141165915388	-0.0014912252067136663	221.1	221.1	221.1	0	0	1	-29.999999999999996	29.999999999999996								
	59	119	1.115891971687802e-5	0.008854544534997575	-0.001491063693803525	221.1	221.1	221.1	0	0	1	-29.999999999999996	29.999999999999996								
	59	139	0.01663735126849802	0.009591474855023468	-0.001491063693803525	221.1	221.1	221.1	0	0	1	-29.999999999999996	29.999999999999996								
	60	97	1.5471423044941663e-5	0.01042633106506454	-0.0014911015569922567	221.1	221.1	221.1	0	0	1	-29.999999999999996	29.999999999999996								
	134	60	1.812331891483553e-5	0.011284578022204075	-0.001491173661484721	221.1	221.1	221.1	0	0	1	-29.999999999999996	29.999999999999996								
	61	103	1.319726165384998e-5	0.009629597211239495	-0.001491083201264334	221.1	221.1	221.1	0	0	1	-29.999999999999996	29.999999999999996								
	159	62	6.607685305564218e-6	0.006813467756083887	-0.001491063693803525	221.1	221.1	221.1	0	0	1	-29.999999999999996	29.999999999999996								
	160	62	2.7305403574192048e-6	0.004380062911029706	-0.001491063693803525	221.1	221.1	221.1	0	0	1	-29.999999999999996	29.999999999999996								
	63	66	5.46977625122599e-5	0.01960424459862841	-0.0014912201485166037	221.1	221.1	221.1	0	0	1	-29.999999999999996	29.999999999999996								
	63	184	6.821264003765767e-5	0.0218925711470588	-0.017338097155593812	221.1	221.1	221.1	0	0	1	-29.999999999999996	29.999999999999996								
	65	64	5.100310368944552e-6	0.005986394433242548	-0.001491407310045665	195.5	195.5	195.5	1.0	0.0	1	-29.999999999999996	29.999999999999996								