%% MATPOWER Case Format : Version 2
function mpc = pglib_opf_case2736sp_k
mpc.version = '2';

%%-----  Power Flow Data  -----%%
%% system MVA base
mpc.baseMVA = 100.0;
%% bus data
%    bus_i    type    Pd    Qd    Gs    Bs    area    Vm    Va    baseKV    zone    Vmax    Vmin
mpc.bus = [
	1	1	0.0	0.0	0.0	0.0	1	1.03	0.0	220.0	1	1.11	0.95				
	2	1	0.0	0.0	0.0	0.0	1	1.03	0.0	220.0	1	1.11	0.95				
	3	1	0.0	0.0	0.0	0.0	1	1.03	0.0	220.0	1	1.11	0.95				
	4	1	0.0	0.0	0.0	0.0	1	1.03	0.0	220.0	1	1.11	0.95				
	5	1	0.0	0.0	0.0	0.0	1	1.03	0.0	220.0	1	1.11	0.95				
	6	1	0.0	0.0	0.0	0.0	1	1.03	0.0	220.0	1	1.11	0.95				
	7	1	0.0	0.0	0.0	0.0	1	1.03	0.0	220.0	1	1.11	0.95				
	8	1	0.0	0.0	0.0	0.0	1	1.0	0.0	400.0	1	1.05	0.95				
	9	1	0.0	0.0	0.0	0.0	1	1.0	0.0	400.0	1	1.05	0.95				
	10	1	0.0	0.0	0.0	0.0	1	1.03	0.0	220.0	1	1.11	0.95				
	11	1	0.0	0.0	0.0	0.0	1	1.03	0.0	220.0	1	1.11	0.95				
	12	1	0.0	0.0	0.0	0.0	1	1.03	0.0	220.0	1	1.11	0.95				
	13	1	0.0	0.0	0.0	0.0	1	1.03	0.0	220.0	1	1.11	0.95				
	14	1	0.0	0.0	0.0	0.0	1	1.0	0.0	400.0	1	1.05	0.95				
	15	1	0.0	0.0	0.0	0.0	1	1.0	0.0	400.0	1	1.05	0.95				
	16	1	0.0	0.0	0.0	0.0	1	1.0	0.0	400.0	1	1.05	0.95				
	17	2	0.0	0.0	0.0	0.0	1	1.03	0.0	220.0	1	1.11	0.95				
	18	1	0.0	0.0	0.0	0.0	1	1.03	0.0	220.0	1	1.11	0.95				
	19	1	0.0	0.0	0.0	0.0	1	1.03	0.0	220.0	1	1.11	0.95				
	20	1	0.0	0.0	0.0	0.0	1	1.03	0.0	220.0	1	1.11	0.95				
	21	1	0.0	0.0	0.0	0.0	1	1.03	0.0	220.0	1	1.11	0.95				
	22	1	0.0	0.0	0.0	0.0	1	1.03	0.0	220.0	1	1.11	0.95				
	23	1	0.0	0.0	0.0	0.0	1	1.03	0.0	220.0	1	1.11	0.95				
	24	1	0.0	0.0	0.0	0.0	1	1.03	0.0	220.0	1	1.11	0.95				
	25	1	0.0	0.0	0.0	0.0	1	1.0	0.0	400.0	1	1.05	0.95				
	26	2	61.358000000000004	72.054	0.0	0.0	1	1.03	0.0	220.0	1	1.11	0.95				
	27	2	84.861	122.06000000000002	0.0	0.0	1	1.03	0.0	220.0	1	1.11	0.95				
	28	3	49.0	74.0	0.0	0.0	1	1.0	0.0	400.0	1	1.05	0.95				
	29	2	49.0	74.0	0.0	0.0	1	1.0	0.0	400.0	1	1.05	0.95				
	30	1	0.0	0.0	0.0	0.0	1	1.03	0.0	220.0	1	1.11	0.95				
	31	1	0.0	0.0	0.0	0.0	1	1.0	0.0	400.0	1	1.05	0.95				
	32	1	0.0	0.0	0.0	0.0	1	1.03	0.0	220.0	1	1.11	0.95				
	33	1	0.0	0.0	0.0	0.0	1	1.03	0.0	220.0	1	1.11	0.95				
	34	1	0.0	0.0	0.0	0.0	1	1.03	0.0	220.0	2	1.11	0.95				
	35	1	0.0	0.0	0.0	0.0	1	1.03	0.0	220.0	2	1.11	0.95				
	36	1	0.0	0.0	0.0	0.0	1	1.03	0.0	220.0	2	1.11	0.95				
	37	1	0.0	0.0	0.0	0.0	1	1.03	0.0	220.0	2	1.11	0.95				
	38	1	0.0	0.0	0.0	0.0	1	1.03	0.0	220.0	2	1.11	0.95				
	39	1	0.0	0.0	0.0	0.0	1	1.03	0.0	220.0	2	1.11	0.95				
	40	1	0.0	0.0	0.0	0.0	1	1.03	0.0	220.0	2	1.11	0.95				
	41	1	0.0	0.0	0.0	0.0	1	1.0	0.0	400.0	2	1.05	0.95				
	42	2	25.0	0.0	0.0	0.0	1	1.03	0.0	220.0	2	1.11	0.95				
	43	2	26.0	0.0	0.0	0.0	1	1.03	0.0	220.0	2	1.11	0.95				
	44	2	25.0	0.0	0.0	0.0	1	1.0	0.0	400.0	2	1.05	0.95				
	45	1	0.0	0.0	0.0	0.0	1	1.0	0.0	400.0	2	1.05	0.95				
	46	1	0.0	0.0	0.0	0.0	1	1.03	0.0	220.0	2	1.11	0.95				
	47	1	0.0	0.0	0.0	0.0	1	1.0	0.0	400.0	2	1.05	0.95				
	48	1	0.0	0.0	0.0	0.0	1	1.0	0.0	400.0	2	1.05	0.95				
	49	1	0.0	0.0	0.0	0.0	1	1.0	0.0	400.0	2	1.05	0.95				
	50	1	0.0	0.0	0.0	0.0	1	1.03	0.0	220.0	2	1.11	0.95				
	51	1	0.0	0.0	0.0	0.0	1	1.03	0.0	220.0	2	1.11	0.95				
	52	1	0.0	0.0	0.0	0.0	1	1.0	0.0	400.0	2	1.05	0.95				
	53	1	0.0	0.0	0.0	0.0	1	1.0	0.0	400.0	2	1.05	0.95				
	54	2	13.0	0.0	0.0	0.0	1	1.03	0.0	220.0	2	1.11	0.95				
	55	2	13.0	0.0	0.0	0.0	1	1.03	0.0	220.0	2	1.11	0.95				
	56	2	13.0	0.0	0.0	0.0	1	1.0	0.0	400.0	2	1.05	0.95				
	57	2	26.0	0.0	0.0	0.0	1	1.0	0.0	400.0	2	1.05	0.95				
	58	2	89.067	40.0	0.0	0.0	1	1.03	0.0	220.0	2	1.11	0.95				
	59	1	0.0	0.0	0.0	0.0	1	1.03	0.0	220.0	2	1.11	0.95				
	60	1	0.0	0.0	0.0	0.0	1	1.03	0.0	220.0	2	1.11	0.95				
	61	1	0.0	0.0	0.0	0.0	1	1.03	0.0	220.0	2	1.11	0.95				
	62	1	0.0	0.0	0.0	0.0	1	1.03	0.0	220.0	2	1.11	0.95				
	63	1	0.0	0.0	0.0	0.0	1	1.0	0.0	400.0	2	1.05	0.95				
	64	1	0.0	0.0	0.0	0.0	1	1.0	0.0	400.0	2	1.05	0.95				
	65	1	0.0	0.0	0.0	0.0	1	1.03	0.0	220.0	2	1.11	0.95				
	66	1	0.0	0.0	0.0	0.0	1	1.03	0.0	220.0	2	1.11	0.95				
	67	1	0.0	0.0	0.0	0.0	1	1.03	0.0	220.0	2	1.11	0.95				
	68	1	0.0	0.0	0.0	0.0	1	1.03	0.0	220.0	3	1.11	0.95				
	69	1	10.327	0.0	0.0	0.0	1	1.03	0.0	220.0	3	1.11	0.95				
	70	1	8.032	3.714	0.0	0.0	1	1.03	0.0	220.0	3	1.11	0.95				
	71	1	0.0	0.0	0.0	0.0	1	1.03	0.0	220.0	3	1.11	0.95				
	72	1	0.0	0.0	0.0	0.0	1	1.03	0.0	220.0	3	1.11	0.95				
	73	1	0.0	0.0	0.0	0.0	1	1.03	0.0	220.0	3	1.11	0.95				
	74	1	0.0	0.0	0.0	0.0	1	1.03	0.0	220.0	3	1.11	0.95				
	75	1	0.0	0.0	0.0	0.0	1	1.03	0.0	220.0	3	1.11	0.95				
	76	1	0.0	0.0	0.0	0.0	1	1.03	0.0	220.0	3	1.11	0.95				
	77	2	27.0	70.0	0.0	0.0	1	1.03	0.0	220.0	3	1.11	0.95				
	78	2	18.7	42.0	0.0	0.0	1	1.03	0.0	220.0	3	1.11	0.95				
	79	1	4.934	0.8170000000000001	0.0	0.0	1	1.03	0.0	220.0	3	1.11	0.95				
	80	1	0.0	0.0	0.0	0.0	1	1.03	0.0	220.0	3	1.11	0.95				
	81	2	18.0	56.99999999999999	0.0	0.0	1	1.0	0.0	400.0	3	1.05	0.95				
	82	1	0.0	0.0	0.0	0.0	1	1.03	0.0	220.0	3	1.11	0.95				
	83	1	0.0	0.0	0.0	0.0	1	1.03	0.0	220.0	3	1.11	0.95				
	84	1	0.0	0.0	0.0	0.0	1	1.03	0.0	220.0	3	1.11	0.95				
	85	1	44.864	-6.4	0.0	0.0	1	1.03	0.0	220.0	3	1.11	0.95				
	86	1	0.0	0.0	0.0	0.0	1	1.03	0.0	220.0	3	1.11	0.95				
	87	1	0.0	0.0	0.0	0.0	1	1.03	0.0	220.0	3	1.11	0.95				
	88	1	0.0	0.0	0.0	0.0	1	1.03	0.0	220.0	3	1.11	0.95				
	89	1	0.0	0.0	0.0	0.0	1	1.03	0.0	220.0	3	1.11	0.95				
	90	1	0.0	0.0	0.0	0.0	1	1.03	0.0	220.0	3	1.11	0.95				
	91	1	0.0	0.0	0.0	0.0	1	1.0	0.0	400.0	3	1.05	0.95				
	92	1	0.0	0.0	0.0	0.0	1	1.0	0.0	400.0	3	1.05	0.95				
	93	1	0.0	0.0	0.0	0.0	1	1.03	0.0	220.0	3	1.11	0.95				
	94	1	0.0	0.0	0.0	0.0	1	1.03	0.0	220.0	3	1.11	0.95				
	95	1	0.0	0.0	0.0	0.0	1	1.03	0.0	220.0	3	1.11	0.95				
	96	1	0.0	0.0	0.0	0.0	1	1.03	0.0	220.0	3	1.11	0.95				
	97	2	12.49	3.696	0.0	0.0	1	1.03	0.0	220.0	3	1.11	0.95				
	98	1	17.327	6.126	0.0	0.0	1	1.03	0.0	220.0	3	1.11	0.95				
	99	1	0.0	0.0	0.0	0.0	1	1.03	0.0	220.0	3	1.11	0.95				
	100	1	0.0	0.0	0.0	0.0	1	1.03	0.0	220.0	3	1.11	0.95				
	101	1	0.0	0.0	0.0	0.0	1	1.03	0.0	220.0	3	1.11	0.95				
	102	1	0.0	0.0	0.0	0.0	1	1.03	0.0	220.0	3	1.11	0.95				
	103	2	14.000000000000002	40.0	0.0	0.0	1	1.03	0.0	220.0	3	1.11	0.95				
	104	1	0.0	0.0	0.0	0.0	1	1.03	0.0	220.0	3	1.11	0.95				
	105	2	7.000000000000001	18.0	0.0	0.0	1	1.03	0.0	220.0	3	1.11	0.95				
	106	1	0.0	0.0	0.0	0.0	1	1.03	0.0	220.0	3	1.11	0.95				
	107	1	0.0	13.892	0.0	0.0	1	1.03	0.0	220.0	3	1.11	0.95				
	108	1	73.779	8.097	0.0	0.0	1	1.03	0.0	220.0	3	1.11	0.95				
	109	1	0.0	0.0	0.0	0.0	1	1.03	0.0	220.0	3	1.11	0.95				
	110	1	0.0	0.0	0.0	0.0	1	1.03	0.0	220.0	3	1.11	0.95				
	111	1	0.0	0.0	0.0	0.0	1	1.03	0.0	220.0	3	1.11	0.95				
	112	1	0.0	0.0	0.0	0.0	1	1.03	0.0	220.0	3	1.11	0.95				
	113	1	0.0	0.0	0.0	0.0	1	1.03	0.0	220.0	3	1.11	0.95				
	114	1	0.0	0.0	0.0	0.0	1	1.0	0.0	400.0	3	1.05	0.95				
	115	1	0.0	0.0	0.0	0.0	1	1.03	0.0	220.0	3	1.11	0.95				
	116	2	8.0	15.0	0.0	0.0	1	1.03	0.0	220.0	3	1.11	0.95				
	117	2	5.5	10.0	0.0	0.0	1	1.03	0.0	220.0	3	1.11	0.95				
	118	1	0.0	0.0	0.0	0.0	1	1.03	0.0	220.0	3	1.11	0.95				
	119	1	0.0	0.0	0.0	0.0	1	1.0	0.0	400.0	3	1.05	0.95				
	120	1	0.0	0.0	0.0	0.0	1	1.0	0.0	400.0	3	1.05	0.95				
	121	1	0.0	0.0	0.0	0.0	1	1.0	0.0	400.0	3	1.05	0.95				
	122	1	0.0	0.0	0.0	0.0	1	1.0	0.0	400.0	3	1.05	0.95				
	123	1	0.0	0.0	0.0	0.0	1	1.03	0.0	220.0	3	1.11	0.95				
	124	2	11.0	17.5	0.0	0.0	1	1.03	0.0	220.0	3	1.11	0.95				
	125	2	41.353	61.199999999999996	0.0	0.0	1	1.03	0.0	220.0	3	1.11	0.95				
	126	2	14.000000000000002	33.0	0.0	0.0	1	1.0	0.0	400.0	3	1.05	0.95				
	127	1	0.0	0.0	0.0	0.0	1	1.0	0.0	400.0	3	1.05	0.95				
	128	1	0.0	0.0	0.0	0.0	1	1.03	0.0	220.0	3	1.11	0.95				
	129	1	0.0	0.0	0.0	0.0	1	1.03	0.0	220.0	3	1.11	0.95				
	130	1	0.0	0.0	0.0	0.0	1	1.03	0.0	220.0	3	1.11	0.95				
	131	2	1.5	9.0	0.0	0.0	1	1.03	0.0	220.0	3	1.11	0.95				
	132	1	0.0	0.0	0.0	0.0	1	1.03	0.0	220.0	3	1.11	0.95				
	133	2	11.215	8.3	0.0	0.0	1	1.03	0.0	220.0	4	1.11	0.95				
	134	2	10.333	7.7	0.0	0.0	1	1.03	0.0	220.0	4	1.11	0.95				
	135	1	0.0	0.0	0.0	0.0	1	1.03	0.0	220.0	4	1.11	0.95				
	136	1	0.0	0.0	0.0	0.0	1	1.03	0.0	220.0	4	1.11	0.95				
	137	1	0.0	0.0	0.0	0.0	1	1.0	0.0	400.0	4	1.05	0.95				
	138	1	0.0	0.0	0.0	0.0	1	1.0	0.0	400.0	4	1.05	0.95				
	139	1	0.0	0.0	0.0	0.0	1	1.03	0.0	220.0	4	1.11	0.95				
	140	1	0.0	0.0	0.0	0.0	1	1.03	0.0	220.0	4	1.11	0.95				
	141	1	0.0	0.0	0.0	0.0	1	1.03	0.0	220.0	4	1.11	0.95				
	142	1	0.0	0.0	0.0	0.0	1	1.03	0.0	220.0	4	1.11	0.95				
	143	1	0.0	0.0	0.0	0.0	1	1.03	0.0	220.0	4	1.11	0.95				
	144	1	0.0	0.0	0.0	0.0	1	1.03	0.0	220.0	4	1.11	0.95				
	145	1	0.0	0.0	0.0	0.0	1	1.03	0.0	220.0	4	1.11	0.95				
	146	1	0.0	0.0	0.0	0.0	1	1.03	0.0	220.0	4	1.11	0.95				
	147	2	25.553000000000004	12.9	0.0	0.0	1	1.03	0.0	220.0	4	1.11	0.95				
	148	1	0.0	0.0	0.0	0.0	1	1.03	0.0	220.0	4	1.11	0.95				
	149	2	11.0	12.0	0.0	0.0	1	1.0	0.0	400.0	4	1.05	0.95				
	150	2	11.922	13.699999999999998	0.0	0.0	1	1.0	0.0	400.0	4	1.05	0.95				
	151	1	0.0	0.0	0.0	0.0	1	1.03	0.0	220.0	4	1.11	0.95				
	152	1	0.0	0.0	0.0	0.0	1	1.03	0.0	220.0	4	1.11	0.95				
	153	1	0.0	0.0	0.0	0.0	1	1.03	0.0	220.0	4	1.11	0.95				
	154	2	19.475	64.3	0.0	0.0	1	1.03	0.0	220.0	4	1.11	0.95				
	155	2	16.0	33.0	0.0	0.0	1	1.03	0.0	220.0	4	1.11	0.95				
	156	1	0.0	0.0	0.0	0.0	1	1.0	0.0	400.0	4	1.05	0.95				
	157	2	10.0	25.0	0.0	0.0	1	1.0	0.0	400.0	4	1.05	0.95				
	158	1	0.0	0.0	0.0	0.0	1	1.03	0.0	220.0	4	1.11	0.95				
	159	1	0.0	0.0	0.0	0.0	1	1.03	0.0	220.0	4	1.11	0.95				
	160	1	0.0	0.0	0.0	0.0	1	1.0	0.0	400.0	4	1.05	0.95				
	161	1	0.0	0.0	0.0	0.0	1	1.0	0.0	400.0	4	1.05	0.95				
	162	1	0.0	0.0	0.0	0.0	1	1.0	0.0	400.0	4	1.05	0.95				
	163	2	5.54	2.93	0.0	0.0	1	1.03	0.0	220.0	4	1.11	0.95				
	164	2	18.255	11.5	0.0	0.0	1	1.03	0.0	220.0	4	1.11	0.95				
	165	1	0.0	0.0	0.0	0.0	1	1.03	0.0	220.0	4	1.11	0.95				
	166	1	0.0	0.0	0.0	0.0	1	1.03	0.0	220.0	4	1.11	0.95				
	167	1	0.0	0.0	0.0	0.0	1	1.03	0.0	220.0	4	1.11	0.95				
	168	1	0.0	0.0	0.0	0.0	1	1.03	0.0	220.0	4	1.11	0.95				
	169	1	0.0	0.0	0.0	0.0	1	1.03	0.0	220.0	4	1.11	0.95				
	170	1	0.0	0.0	0.0	0.0	1	1.0	0.0	400.0	4	1.05	0.95				
	171	1	0.0	0.0	0.0	0.0	1	1.0	0.0	400.0	4	1.05	0.95				
	172	1	0.0	0.0	0.0	0.0	1	1.03	0.0	220.0	4	1.11	0.95				
	173	1	0.0	0.0	0.0	0.0	1	1.03	0.0	220.0	4	1.11	0.95				
	174	1	0.0	0.0	0.0	0.0	1	1.03	0.0	220.0	4	1.11	0.95				
	175	1	0.0	0.0	0.0	0.0	1	1.03	0.0	220.0	4	1.11	0.95				
	176	1	0.0	0.0	0.0	0.0	1	1.03	0.0	220.0	4	1.11	0.95				
	177	1	0.0	0.0	0.0	0.0	1	1.03	0.0	220.0	4	1.11	0.95				
	178	1	0.0	0.0	0.0	0.0	1	1.03	0.0	220.0	4	1.11	0.95				
	179	2	3.1300000000000003	1.5	0.0	0.0	1	1.03	0.0	220.0	4	1.11	0.95				
	180	1	0.0	0.0	0.0	0.0	1	1.03	0.0	220.0	4	1.11	0.95				
	181	1	0.0	0.0	0.0	0.0	1	1.03	0.0	220.0	5	1.11	0.95				
	182	1	0.0	0.0	0.0	0.0	1	1.03	0.0	220.0	5	1.11	0.95				
	183	1	0.0	0.0	0.0	0.0	1	1.0	0.0	400.0	5	1.05	0.95				
	184	1	0.0	0.0	0.0	0.0	1	1.0	0.0	400.0	5	1.05	0.95				
	185	1	0.0	0.0	0.0	0.0	1	1.0	0.0	400.0	5	1.05	0.95				
	186	1	0.0	0.0	0.0	0.0	1	1.0	0.0	400.0	5	1.05	0.95				
	187	1	0.0	0.0	0.0	0.0	1	1.03	0.0	220.0	5	1.11	0.95				
	188	1	0.0	0.0	0.0	0.0	1	1.03	0.0	220.0	5	1.11	0.95				
	189	1	0.0	0.0	0.0	0.0	1	1.03	0.0	220.0	5	1.11	0.95				
	190	1	0.0	0.0	0.0	0.0	1	1.03	0.0	220.0	5	1.11	0.95				
	191	1	0.0	0.0	0.0	0.0	1	1.0	0.0	400.0	5	1.05	0.95				
	192	1	0.0	0.0	0.0	0.0	1	1.03	0.0	220.0	5	1.11	0.95				
	193	1	0.0	0.0	0.0	0.0	1	1.03	0.0	220.0	5	1.11	0.95				
	194	1	0.0	0.0	0.0	0.0	1	1.0	0.0	400.0	5	1.05	0.95				
	195	1	0.0	0.0	0.0	0.0	1	1.0	0.0	400.0	5	1.05	0.95				
	196	1	0.0	0.0	0.0	0.0	1	1.03	0.0	220.0	5	1.11	0.95				
	197	1	0.0	0.0	0.0	0.0	1	1.03	0.0	220.0	5	1.11	0.95				
	198	1	0.0	0.0	0.0	-117.0	1	1.0	0.0	400.0	5	1.05	0.95				
	199	1	0.0	0.0	0.0	0.0	1	1.0	0.0	400.0	5	1.05	0.95				
	200	1	0.0	0.0	0.0	0.0	1	1.03	0.0	220.0	5	1.11	0.95				
	201	1	0.0	0.0	0.0	0.0	1	1.03	0.0	220.0	5	1.11	0.95				
	202	1	0.0	0.0	0.0	0.0	1	1.03	0.0	220.0	5	1.11	0.95				
	203	1	0.0	0.0	0.0	0.0	1	1.03	0.0	220.0	5	1.11	0.95				
	204	2	0.0	0.0	0.0	0.0	1	1.0	0.0	400.0	5	1.05	0.95				
	205	2	0.0	0.0	0.0	0.0	1	1.0	0.0	400.0	5	1.05	0.95				
	206	1	0.0	0.0	0.0	0.0	1	1.03	0.0	220.0	5	1.11	0.95				
	207	1	0.0	0.0	0.0	0.0	1	1.03	0.0	220.0	5	1.11	0.95				
	208	1	9.59	1.0	0.0	0.0	1	1.035	0.0	110.0	1	1.12	0.95				
	209	1	4.795	0.5	0.0	0.0	1	1.035	0.0	110.0	1	1.12	0.95				
	210	1	4.262	2.0	0.0	0.0	1	1.035	0.0	110.0	1	1.12	0.95				
	211	1	6.5	5.4	0.0	0.0	1	1.035	0.0	110.0	1	1.12	0.95				
	212	1	2.877	0.6	0.0	0.0	1	1.035	0.0	110.0	1	1.12	0.95				
	213	1	3.197	0.3	0.0	0.0	1	1.035	0.0	110.0	1	1.12	0.95				
	214	2	21.711	12.3	0.0	0.0	1	1.035	0.0	110.0	1	1.12	0.95				
	215	1	12.254	2.0	0.0	0.0	1	1.035	0.0	110.0	1	1.12	0.95				
	216	1	6.926	2.0	0.0	0.0	1	1.035	0.0	110.0	1	1.12	0.95				
	217	1	10.655	1.5	0.0	0.0	1	1.035	0.0	110.0	1	1.12	0.95				
	218	1	7.672	3.0	0.0	0.0	1	1.035	0.0	110.0	1	1.12	0.95				
	219	1	8.524	2.0	0.0	0.0	1	1.035	0.0	110.0	1	1.12	0.95				
	220	2	0.0	0.0	0.0	0.0	1	1.035	0.0	110.0	1	1.12	0.95				
	221	2	6.605999999999999	2.1	0.0	0.0	1	1.035	0.0	110.0	1	1.12	0.95				
	222	1	8.099	1.5	0.0	0.0	1	1.035	0.0	110.0	1	1.12	0.95				
	223	1	0.746	0.1	0.0	0.0	1	1.035	0.0	110.0	1	1.12	0.95				
	224	1	3.943	0.2	0.0	0.0	1	1.035	0.0	110.0	1	1.12	0.95				
	225	1	3.197	0.5	0.0	0.0	1	1.035	0.0	110.0	1	1.12	0.95				
	226	1	12.787	1.0	0.0	0.0	1	1.035	0.0	110.0	1	1.12	0.95				
	227	1	4.475	0.7	0.0	0.0	1	1.035	0.0	110.0	1	1.12	0.95				
	228	1	4.262	0.7	0.0	0.0	1	1.035	0.0	110.0	1	1.12	0.95				
	229	1	2.451	0.98	0.0	0.0	1	1.035	0.0	110.0	1	1.12	0.95				
	230	1	2.451	0.98	0.0	0.0	1	1.035	0.0	110.0	1	1.12	0.95				
	231	1	5.327	1.0	0.0	0.0	1	1.035	0.0	110.0	1	1.12	0.95				
	232	1	4.262	1.0	0.0	0.0	1	1.035	0.0	110.0	1	1.12	0.95				
	233	1	9.057	0.4	0.0	0.0	1	1.035	0.0	110.0	1	1.12	0.95				
	234	1	31.966	28.001000000000005	0.0	0.0	1	1.035	0.0	110.0	1	1.12	0.95				
	235	1	5.86	0.8	0.0	0.0	1	1.035	0.0	110.0	1	1.12	0.95				
	236	1	8.631	2.94	0.0	0.0	1	1.035	0.0	110.0	1	1.12	0.95				
	237	1	5.967	0.2	0.0	0.0	1	1.035	0.0	110.0	1	1.12	0.95				
	238	1	5.328	0.5	0.0	0.0	1	1.035	0.0	110.0	1	1.12	0.95				
	239	2	0.0	0.0	0.0	0.0	1	1.035	0.0	110.0	1	1.12	0.95				
	240	1	12.04	1.0	0.0	0.0	1	1.035	0.0	110.0	1	1.12	0.95				
	241	1	3.836	1.18	0.0	0.0	1	1.035	0.0	110.0	1	1.12	0.95				
	242	1	3.7290000000000005	0.4	0.0	0.0	1	1.035	0.0	110.0	1	1.12	0.95				
	243	1	3.7290000000000005	0.4	0.0	0.0	1	1.035	0.0	110.0	1	1.12	0.95				
	244	1	2.131	1.1	0.0	0.0	1	1.035	0.0	110.0	1	1.12	0.95				
	245	1	0.0	0.0	0.0	0.0	1	1.035	0.0	110.0	1	1.12	0.95				
	246	2	0.0	5.0	0.0	0.0	1	1.035	0.0	22.0	1	1.12	0.95				
	247	1	7.458000000000001	1.0	0.0	0.0	1	1.035	0.0	110.0	1	1.12	0.95				
	248	1	2.131	0.0	0.0	0.0	1	1.035	0.0	110.0	1	1.12	0.95				
	249	1	2.131	0.0	0.0	0.0	1	1.035	0.0	110.0	1	1.12	0.95				
	250	1	2.664	0.5	0.0	0.0	1	1.035	0.0	110.0	1	1.12	0.95				
	251	1	3.5159999999999996	0.1	0.0	0.0	1	1.035	0.0	110.0	1	1.12	0.95				
	252	1	11.721	5.4	0.0	0.0	1	1.035	0.0	110.0	1	1.12	0.95				
	253	1	11.721	4.0	0.0	0.0	1	1.035	0.0	110.0	1	1.12	0.95				
	254	1	10.122	1.0	0.0	0.0	1	1.035	0.0	110.0	1	1.12	0.95				
	255	1	12.787	1.5	0.0	0.0	1	1.035	0.0	110.0	1	1.12	0.95				
	256	1	4.795	0.0	0.0	0.0	1	1.035	0.0	110.0	1	1.12	0.95				
	257	1	3.197	0.65	0.0	0.0	1	1.035	0.0	110.0	1	1.12	0.95				
	258	1	3.197	0.65	0.0	0.0	1	1.035	0.0	110.0	1	1.12	0.95				
	259	1	7.992000000000001	2.47	0.0	0.0	1	1.035	0.0	110.0	1	1.12	0.95				
	260	1	4.795	0.0	0.0	0.0	1	1.035	0.0	110.0	1	1.12	0.95				
	261	1	8.098	1.5	0.0	0.0	1	1.035	0.0	110.0	1	1.12	0.95				
	262	1	0.0	0.0	0.0	0.0	1	1.035	0.0	110.0	1	1.12	0.95				
	263	1	1.279	1.0	0.0	0.0	1	1.035	0.0	110.0	1	1.12	0.95				
	264	1	25.574	22.0	0.0	0.0	1	1.035	0.0	110.0	1	1.12	0.95				
	265	1	34.097	30.0	0.0	0.0	1	1.035	0.0	110.0	1	1.12	0.95				
	266	1	27.704	0.8	0.0	0.0	1	1.035	0.0	110.0	1	1.12	0.95				
	267	1	1.066	0.0	0.0	0.0	1	1.035	0.0	110.0	1	1.12	0.95				
	268	1	9.59	0.8	0.0	0.0	1	1.035	0.0	110.0	1	1.12	0.95				
	269	1	5.967	2.0	0.0	0.0	1	1.035	0.0	110.0	1	1.12	0.95				
	270	1	9.057	1.5	0.0	0.0	1	1.035	0.0	110.0	1	1.12	0.95				
	271	1	6.393	0.5	0.0	0.0	1	1.035	0.0	110.0	1	1.12	0.95				
	272	1	7.885000000000001	1.8500000000000003	0.0	0.0	1	1.035	0.0	110.0	1	1.12	0.95				
	273	1	0.426	0.1	0.0	0.0	1	1.035	0.0	110.0	1	1.12	0.95				
	274	1	0.213	0.06	0.0	0.0	1	1.035	0.0	110.0	1	1.12	0.95				
	275	1	0.0	0.0	0.0	0.0	1	1.035	0.0	110.0	1	1.12	0.95				
	276	1	11.401	5.18	0.0	0.0	1	1.035	0.0	110.0	1	1.12	0.95				
	277	1	0.0	0.0	0.0	0.0	1	1.035	0.0	110.0	1	1.12	0.95				
	278	1	5.328	1.4	0.0	0.0	1	1.035	0.0	110.0	1	1.12	0.95				
	279	1	2.131	0.5	0.0	0.0	1	1.035	0.0	110.0	1	1.12	0.95				
	280	1	5.328	0.5	0.0	0.0	1	1.035	0.0	110.0	1	1.12	0.95				
	281	1	5.328	1.0	0.0	0.0	1	1.035	0.0	110.0	1	1.12	0.95				
	282	1	5.328	1.0	0.0	0.0	1	1.035	0.0	110.0	1	1.12	0.95				
	283	1	14.917999999999997	12.0	0.0	0.0	1	1.035	0.0	110.0	1	1.12	0.95				
	284	1	37.294	33.0	0.0	0.0	1	1.035	0.0	110.0	1	1.12	0.95				
	285	1	1.386	0.4	0.0	0.0	1	1.035	0.0	110.0	1	1.12	0.95				
	286	1	0.0	0.0	0.0	0.0	1	1.035	0.0	110.0	1	1.12	0.95				
	287	1	8.525	2.9	0.0	0.0	1	1.035	0.0	110.0	1	1.12	0.95				
	288	1	7.458999999999999	2.0	0.0	0.0	1	1.035	0.0	110.0	1	1.12	0.95				
	289	1	6.926	0.5	0.0	0.0	1	1.035	0.0	110.0	1	1.12	0.95				
	290	1	4.795	0.0	0.0	0.0	1	1.035	0.0	110.0	1	1.12	0.95				
	291	1	3.7290000000000005	2.5	0.0	0.0	1	1.035	0.0	110.0	1	1.12	0.95				
	292	1	2.344	0.2	0.0	0.0	1	1.035	0.0	110.0	1	1.12	0.95				
	293	1	11.402	4.1	0.0	0.0	1	1.035	0.0	110.0	1	1.12	0.95				
	294	1	8.311	1.5	0.0	0.0	1	1.035	0.0	110.0	1	1.12	0.95				
	295	1	4.902	1.51	0.0	0.0	1	1.035	0.0	110.0	1	1.12	0.95				
	296	1	1.704	1.4	0.0	0.0	1	1.035	0.0	110.0	1	1.12	0.95				
	297	1	4.582	0.5	0.0	0.0	1	1.035	0.0	110.0	1	1.12	0.95				
	298	1	7.672	0.8	0.0	0.0	1	1.035	0.0	110.0	1	1.12	0.95				
	299	1	4.262	0.7	0.0	0.0	1	1.035	0.0	110.0	1	1.12	0.95				
	300	1	6.18	2.11	0.0	0.0	1	1.035	0.0	110.0	1	1.12	0.95				
	301	1	8.205	2.53	0.0	0.0	1	1.035	0.0	110.0	1	1.12	0.95				
	302	1	8.524	0.5	0.0	0.0	1	1.035	0.0	110.0	1	1.12	0.95				
	303	1	0.0	0.0	0.0	0.0	1	1.035	0.0	110.0	1	1.12	0.95				
	304	1	4.049	1.5	0.0	0.0	1	1.035	0.0	110.0	1	1.12	0.95				
	305	1	7.992000000000001	2.72	0.0	0.0	1	1.035	0.0	110.0	1	1.12	0.95				
	306	1	7.779	2.4	0.0	0.0	1	1.035	0.0	110.0	1	1.12	0.95				
	307	1	13.746	4.24	0.0	0.0	1	1.035	0.0	110.0	1	1.12	0.95				
	308	1	12.254	3.7800000000000002	0.0	0.0	1	1.035	0.0	110.0	1	1.12	0.95				
	309	2	14.147000000000002	9.046	0.0	0.0	1	1.035	0.0	110.0	1	1.12	0.95				
	310	2	11.759	7.000000000000001	0.0	0.0	1	1.035	0.0	110.0	1	1.12	0.95				
	311	2	15.573	8.3	0.0	0.0	1	1.035	0.0	110.0	1	1.12	0.95				
	312	1	0.0	0.0	0.0	0.0	1	1.035	0.0	110.0	1	1.12	0.95				
	313	2	10.354	5.48	0.0	0.0	1	1.035	0.0	110.0	1	1.12	0.95				
	314	1	6.18	5.15	0.0	0.0	1	1.035	0.0	110.0	1	1.12	0.95				
	315	1	8.525	1.2	0.0	0.0	1	1.035	0.0	110.0	1	1.12	0.95				
	316	1	2.131	0.5	0.0	0.0	1	1.035	0.0	110.0	1	1.12	0.95				
	317	1	4.794	1.5	0.0	0.0	1	1.035	0.0	110.0	1	1.12	0.95				
	318	1	3.9960000000000004	1.25	0.0	0.0	1	1.035	0.0	110.0	1	1.12	0.95				
	319	1	6.127	1.25	0.0	0.0	1	1.035	0.0	110.0	1	1.12	0.95				
	320	1	6.926	2.5	0.0	0.0	1	1.035	0.0	110.0	1	1.12	0.95				
	321	1	8.205	2.53	0.0	0.0	1	1.035	0.0	110.0	1	1.12	0.95				
	322	2	14.597999999999999	4.51	0.0	0.0	1	1.035	0.0	110.0	1	1.12	0.95				
	323	1	12.787	1.5	0.0	0.0	1	1.035	0.0	110.0	1	1.12	0.95				
	324	1	13.959	4.76	0.0	0.0	1	1.035	0.0	110.0	1	1.12	0.95				
	325	1	5.967	1.8399999999999999	0.0	0.0	1	1.035	0.0	110.0	1	1.12	0.95				
	326	1	5.967	1.8399999999999999	0.0	0.0	1	1.035	0.0	110.0	1	1.12	0.95				
	327	1	7.458999999999999	1.0	0.0	0.0	1	1.035	0.0	110.0	1	1.12	0.95				
	328	1	13.852	3.0	0.0	0.0	1	1.035	0.0	110.0	1	1.12	0.95				
	329	1	9.057	2.8	0.0	0.0	1	1.035	0.0	110.0	1	1.12	0.95				
	330	1	5.328	2.0	0.0	0.0	1	1.035	0.0	110.0	1	1.12	0.95				
	331	1	3.197	1.0	0.0	0.0	1	1.035	0.0	110.0	1	1.12	0.95				
	332	1	26.851999999999997	8.29	0.0	0.0	1	1.035	0.0	110.0	1	1.12	0.95				
	333	1	7.458999999999999	1.0	0.0	0.0	1	1.035	0.0	110.0	1	1.12	0.95				
	334	1	2.664	0.8	0.0	0.0	1	1.035	0.0	110.0	1	1.12	0.95				
	335	1	5.86	0.8	0.0	0.0	1	1.035	0.0	110.0	1	1.12	0.95				
	336	1	5.434	0.2	0.0	0.0	1	1.035	0.0	110.0	1	1.12	0.95				
	337	1	7.352	2.27	0.0	0.0	1	1.035	0.0	110.0	1	1.12	0.95				
	338	1	7.458999999999999	2.7	0.0	0.0	1	1.035	0.0	110.0	1	1.12	0.95				
	339	1	9.59	2.7	0.0	0.0	1	1.035	0.0	110.0	1	1.12	0.95				
	340	1	9.59	2.7	0.0	0.0	1	1.035	0.0	110.0	1	1.12	0.95				
	341	1	2.664	0.5	0.0	0.0	1	1.035	0.0	110.0	1	1.12	0.95				
	342	1	0.0	0.0	0.0	0.0	1	1.035	0.0	110.0	1	1.12	0.95				
	343	1	0.0	0.0	0.0	0.0	1	1.035	0.0	110.0	1	1.12	0.95				
	344	1	11.188	4.0	0.0	0.0	1	1.035	0.0	110.0	1	1.12	0.95				
	345	1	11.188	3.5000000000000004	0.0	0.0	1	1.035	0.0	110.0	1	1.12	0.95				
	346	1	0.0	0.0	0.0	0.0	1	1.035	0.0	110.0	1	1.12	0.95				
	347	1	3.7290000000000005	0.5	0.0	0.0	1	1.035	0.0	110.0	1	1.12	0.95				
	348	1	5.328	1.0	0.0	0.0	1	1.035	0.0	110.0	1	1.12	0.95				
	349	1	6.926	0.4	0.0	0.0	1	1.035	0.0	110.0	1	1.12	0.95				
	350	1	11.614	3.5900000000000003	0.0	0.0	1	1.035	0.0	110.0	1	1.12	0.95				
	351	1	7.672	1.8000000000000003	0.0	0.0	1	1.035	0.0	110.0	1	1.12	0.95				
	352	1	0.0	0.0	0.0	0.0	1	1.035	0.0	110.0	1	1.12	0.95				
	353	1	4.262	1.0	0.0	0.0	1	1.035	0.0	110.0	1	1.12	0.95				
	354	1	0.0	0.0	0.0	0.0	1	1.035	0.0	110.0	1	1.12	0.95				
	355	1	1.066	0.3	0.0	0.0	1	1.035	0.0	110.0	1	1.12	0.95				
	356	1	0.0	0.0	0.0	0.0	1	1.035	0.0	110.0	1	1.12	0.95				
	357	1	0.0	0.0	0.0	0.0	1	1.035	0.0	110.0	1	1.12	0.95				
	358	1	6.393	1.9	0.0	0.0	1	1.035	0.0	110.0	1	1.12	0.95				
	359	1	6.926	2.5	0.0	0.0	1	1.035	0.0	110.0	1	1.12	0.95				
	360	1	9.057	1.2	0.0	0.0	1	1.035	0.0	110.0	1	1.12	0.95				
	361	1	0.0	0.0	0.0	0.0	1	1.035	0.0	110.0	1	1.12	0.95				
	362	1	0.0	0.0	0.0	0.0	1	1.035	0.0	110.0	1	1.12	0.95				
	363	1	5.861	0.8	0.0	0.0	1	1.035	0.0	110.0	1	1.12	0.95				
	364	1	4.156	0.8	0.0	0.0	1	1.035	0.0	110.0	1	1.12	0.95				
	365	2	53.276999999999994	10.0	0.0	0.0	1	1.035	0.0	110.0	1	1.12	0.95				
	366	2	53.276999999999994	10.0	0.0	0.0	1	1.035	0.0	110.0	1	1.12	0.95				
	367	2	53.276999999999994	10.0	0.0	0.0	1	1.035	0.0	110.0	1	1.12	0.95				
	368	2	53.276999999999994	10.0	0.0	0.0	1	1.035	0.0	110.0	1	1.12	0.95				
	369	1	0.0	0.0	0.0	0.0	1	1.035	0.0	110.0	1	1.12	0.95				
	370	1	8.524	0.8	0.0	0.0	1	1.035	0.0	110.0	1	1.12	0.95				
	371	1	17.048	1.0	0.0	0.0	1	1.035	0.0	110.0	1	1.12	0.95				
	372	1	4.262	1.0	0.0	0.0	1	1.035	0.0	110.0	1	1.12	0.95				
	373	1	0.0	0.0	0.0	0.0	1	1.035	0.0	110.0	1	1.12	0.95				
	374	1	11.721	3.1	0.0	0.0	1	1.035	0.0	110.0	1	1.12	0.95				
	375	1	2.664	0.7	0.0	0.0	1	1.035	0.0	110.0	1	1.12	0.95				
	376	1	2.664	0.7	0.0	0.0	1	1.035	0.0	110.0	1	1.12	0.95				
	377	1	6.393	1.5	0.0	0.0	1	1.035	0.0	110.0	1	1.12	0.95				
	378	1	6.607	0.4	0.0	0.0	1	1.035	0.0	110.0	1	1.12	0.95				
	379	1	5.86	1.2	0.0	0.0	1	1.035	0.0	110.0	1	1.12	0.95				
	380	1	4.795	0.8	0.0	0.0	1	1.035	0.0	110.0	1	1.12	0.95				
	381	1	2.131	1.0	0.0	0.0	1	1.035	0.0	110.0	1	1.12	0.95				
	382	1	10.655	2.1	0.0	0.0	1	1.035	0.0	110.0	1	1.12	0.95				
	383	1	7.458999999999999	1.8000000000000003	0.0	0.0	1	1.035	0.0	110.0	1	1.12	0.95				
	384	1	12.254	3.5000000000000004	0.0	0.0	1	1.035	0.0	110.0	1	1.12	0.95				
	385	2	0.0	0.0	0.0	0.0	1	1.035	0.0	110.0	1	1.12	0.95				
	386	2	0.0	0.0	0.0	0.0	1	1.035	0.0	110.0	1	1.12	0.95				
	387	1	2.131	0.5	0.0	0.0	1	1.035	0.0	110.0	1	1.12	0.95				
	388	1	7.779	2.8	0.0	0.0	1	1.035	0.0	110.0	1	1.12	0.95				
	389	1	11.934	3.6799999999999997	0.0	0.0	1	1.035	0.0	110.0	1	1.12	0.95				
	390	1	6.394	2.0	0.0	0.0	1	1.035	0.0	110.0	1	1.12	0.95				
	391	1	12.36	4.94	0.0	0.0	1	1.035	0.0	110.0	1	1.12	0.95				
	392	1	2.131	0.73	0.0	0.0	1	1.035	0.0	110.0	1	1.12	0.95				
	393	1	0.0	0.0	0.0	0.0	1	1.035	0.0	110.0	1	1.12	0.95				
	394	1	0.0	0.0	0.0	0.0	1	1.035	0.0	110.0	1	1.12	0.95				
	395	1	3.7290000000000005	0.3	0.0	0.0	1	1.035	0.0	110.0	1	1.12	0.95				
	396	1	1.066	0.0	0.0	0.0	1	1.035	0.0	110.0	1	1.12	0.95				
	397	1	4.262	1.2	0.0	0.0	1	1.035	0.0	110.0	1	1.12	0.95				
	398	1	4.262	1.0	0.0	0.0	1	1.035	0.0	110.0	1	1.12	0.95				
	399	1	0.0	0.0	0.0	0.0	1	1.035	0.0	110.0	1	1.12	0.95				
	400	1	3.836	1.0	0.0	0.0	1	1.035	0.0	110.0	1	1.12	0.95				
	401	1	2.065	0.9199999999999999	0.0	0.0	1	1.035	0.0	110.0	1	1.12	0.95				
	402	1	4.262	1.0	0.0	0.0	1	1.035	0.0	110.0	1	1.12	0.95				
	403	1	3.197	0.3	0.0	0.0	1	1.035	0.0	110.0	1	1.12	0.95				
	404	1	27.172	7.000000000000001	0.0	0.0	1	1.035	0.0	110.0	1	1.12	0.95				
	405	1	22.909	6.601	0.0	0.0	1	1.035	0.0	110.0	1	1.12	0.95				
	406	1	7.458999999999999	1.0	0.0	0.0	1	1.035	0.0	110.0	1	1.12	0.95				
	407	1	6.393	1.0	0.0	0.0	1	1.035	0.0	110.0	1	1.12	0.95				
	408	1	7.458999999999999	1.0	0.0	0.0	1	1.035	0.0	110.0	1	1.12	0.95				
	409	1	5.754	1.4	0.0	0.0	1	1.035	0.0	110.0	1	1.12	0.95				
	410	1	10.229	0.5	0.0	0.0	1	1.035	0.0	110.0	1	1.12	0.95				
	411	1	6.712999999999999	0.8	0.0	0.0	1	1.035	0.0	110.0	1	1.12	0.95				
	412	1	2.557	0.5	0.0	0.0	1	1.035	0.0	110.0	1	1.12	0.95				
	413	1	0.0	0.0	0.0	0.0	1	1.035	0.0	110.0	1	1.12	0.95				
	414	1	0.0	0.0	0.0	0.0	1	1.035	0.0	110.0	1	1.12	0.95				
	415	1	11.188	1.5	0.0	0.0	1	1.035	0.0	110.0	1	1.12	0.95				
	416	1	7.458999999999999	0.2	0.0	0.0	1	1.035	0.0	110.0	1	1.12	0.95				
	417	1	6.926	0.8	0.0	0.0	1	1.035	0.0	110.0	1	1.12	0.95				
	418	1	16.516	2.0	0.0	0.0	1	1.035	0.0	110.0	1	1.12	0.95				
	419	1	3.197	0.8	0.0	0.0	1	1.035	0.0	110.0	1	1.12	0.95				
	420	1	5.221	0.8	0.0	0.0	1	1.035	0.0	110.0	1	1.12	0.95				
	421	1	14.917999999999997	4.2	0.0	0.0	1	1.035	0.0	110.0	1	1.12	0.95				
	422	1	14.917999999999997	4.2	0.0	0.0	1	1.035	0.0	110.0	1	1.12	0.95				
	423	1	5.328	1.0	0.0	0.0	1	1.035	0.0	110.0	1	1.12	0.95				
	424	1	8.737	2.7	0.0	0.0	1	1.035	0.0	110.0	1	1.12	0.95				
	425	1	8.098	1.7000000000000002	0.0	0.0	1	1.035	0.0	110.0	1	1.12	0.95				
	426	1	7.458999999999999	0.49899999999999994	0.0	0.0	1	1.035	0.0	110.0	1	1.12	0.95				
	427	1	8.524	0.3	0.0	0.0	1	1.035	0.0	110.0	1	1.12	0.95				
	428	1	5.328	2.0	0.0	0.0	1	1.035	0.0	110.0	1	1.12	0.95				
	429	1	9.91	3.06	0.0	0.0	1	1.035	0.0	110.0	1	1.12	0.95				
	430	1	0.0	0.0	0.0	0.0	1	1.035	0.0	110.0	1	1.12	0.95				
	431	1	7.672	1.2	0.0	0.0	1	1.035	0.0	110.0	1	1.12	0.95				
	432	1	4.688	0.3	0.0	0.0	1	1.035	0.0	110.0	1	1.12	0.95				
	433	1	6.926	2.2	0.0	0.0	1	1.035	0.0	110.0	1	1.12	0.95				
	434	1	8.311	1.0	0.0	0.0	1	1.035	0.0	110.0	1	1.12	0.95				
	435	1	5.541	1.71	0.0	0.0	1	1.035	0.0	110.0	1	1.12	0.95				
	436	1	5.86	2.0	0.0	0.0	1	1.035	0.0	110.0	1	1.12	0.95				
	437	1	4.262	1.7000000000000002	0.0	0.0	1	1.035	0.0	110.0	1	1.12	0.95				
	438	1	16.516	3.0	0.0	0.0	1	1.035	0.0	110.0	1	1.12	0.95				
	439	1	0.0	0.0	0.0	0.0	1	1.035	0.0	110.0	1	1.12	0.95				
	440	1	8.525	0.5	0.0	0.0	1	1.035	0.0	110.0	1	1.12	0.95				
	441	1	2.131	0.3	0.0	0.0	1	1.035	0.0	110.0	1	1.12	0.95				
	442	1	2.664	0.4	0.0	0.0	1	1.035	0.0	110.0	1	1.12	0.95				
	443	2	4.263	1.5	0.0	0.0	1	1.035	0.0	110.0	1	1.12	0.95				
	444	1	2.664	0.3	0.0	0.0	1	1.035	0.0	110.0	1	1.12	0.95				
	445	1	2.77	0.9399999999999998	0.0	0.0	1	1.035	0.0	110.0	1	1.12	0.95				
	446	1	12.467	3.85	0.0	0.0	1	1.035	0.0	110.0	1	1.12	0.95				
	447	1	4.795	0.5	0.0	0.0	1	1.035	0.0	110.0	1	1.12	0.95				
	448	1	2.557	0.8	0.0	0.0	1	1.035	0.0	110.0	1	1.12	0.95				
	449	1	6.393	1.8000000000000003	0.0	0.0	1	1.035	0.0	110.0	1	1.12	0.95				
	450	2	0.0	0.0	0.0	0.0	1	1.035	0.0	110.0	1	1.12	0.95				
	451	1	4.476	0.0	0.0	0.0	1	1.035	0.0	110.0	1	1.12	0.95				
	452	2	6.819	0.4	0.0	0.0	1	1.035	0.0	110.0	1	1.12	0.95				
	453	1	3.197	0.5	0.0	0.0	1	1.035	0.0	110.0	1	1.12	0.95				
	454	1	4.262	1.5	0.0	0.0	1	1.035	0.0	110.0	1	1.12	0.95				
	455	1	14.917999999999997	4.0	0.0	0.0	1	1.035	0.0	110.0	1	1.12	0.95				
	456	1	1.492	0.2	0.0	0.0	1	1.035	0.0	110.0	1	1.12	0.95				
	457	1	9.59	2.4	0.0	0.0	1	1.035	0.0	110.0	1	1.12	0.95				
	458	1	7.458999999999999	1.7000000000000002	0.0	0.0	1	1.035	0.0	110.0	1	1.12	0.95				
	459	1	10.016	1.8000000000000003	0.0	0.0	1	1.035	0.0	110.0	1	1.12	0.95				
	460	1	7.458999999999999	0.4010000000000001	0.0	0.0	1	1.035	0.0	110.0	1	1.12	0.95				
	461	1	4.262	1.0	0.0	0.0	1	1.035	0.0	110.0	1	1.12	0.95				
	462	1	11.188	1.5	0.0	0.0	1	1.035	0.0	110.0	1	1.12	0.95				
	463	1	6.393	3.0	0.0	0.0	1	1.035	0.0	110.0	1	1.12	0.95				
	464	1	6.926	1.5	0.0	0.0	1	1.035	0.0	110.0	1	1.12	0.95				
	465	1	7.458999999999999	1.6	0.0	0.0	1	1.035	0.0	110.0	1	1.12	0.95				
	466	1	12.68	5.4	0.0	0.0	1	1.035	0.0	110.0	1	1.12	0.95				
	467	1	10.656	1.2	0.0	0.0	1	1.035	0.0	110.0	1	1.12	0.95				
	468	1	6.394	0.5	0.0	0.0	1	1.035	0.0	110.0	1	1.12	0.95				
	469	1	6.18	1.91	0.0	0.0	1	1.035	0.0	110.0	1	1.12	0.95				
	470	1	2.984	1.0	0.0	0.0	1	1.035	0.0	110.0	1	1.12	0.95				
	471	1	4.156	1.28	0.0	0.0	1	1.035	0.0	110.0	1	1.12	0.95				
	472	1	2.025	0.1	0.0	0.0	1	1.035	0.0	110.0	1	1.12	0.95				
	473	1	3.197	0.5	0.0	0.0	1	1.035	0.0	110.0	1	1.12	0.95				
	474	1	13.319	1.0	0.0	0.0	1	1.035	0.0	110.0	1	1.12	0.95				
	475	1	1.066	0.5	0.0	0.0	1	1.035	0.0	110.0	1	1.12	0.95				
	476	1	1.066	0.5	0.0	0.0	1	1.035	0.0	110.0	1	1.12	0.95				
	477	1	7.992000000000001	1.5	0.0	0.0	1	1.035	0.0	110.0	1	1.12	0.95				
	478	1	2.984	0.2	0.0	0.0	1	1.035	0.0	110.0	1	1.12	0.95				
	479	1	2.344	0.5	0.0	0.0	1	1.035	0.0	110.0	1	1.12	0.95				
	480	1	12.254	5.0	0.0	0.0	1	1.035	0.0	110.0	1	1.12	0.95				
	481	1	16.729	5.17	0.0	0.0	1	1.035	0.0	110.0	1	1.12	0.95				
	482	1	5.86	1.0	0.0	0.0	1	1.035	0.0	110.0	1	1.12	0.95				
	483	1	2.131	0.5	0.0	0.0	1	1.035	0.0	110.0	1	1.12	0.95				
	484	1	2.131	0.0	0.0	0.0	1	1.035	0.0	110.0	1	1.12	0.95				
	485	2	4.795	0.6	0.0	0.0	1	1.035	0.0	110.0	1	1.12	0.95				
	486	1	4.475	0.6	0.0	0.0	1	1.035	0.0	110.0	1	1.12	0.95				
	487	1	5.328	1.2	0.0	0.0	1	1.035	0.0	110.0	1	1.12	0.95				
	488	1	5.647	1.3	0.0	0.0	1	1.035	0.0	110.0	1	1.12	0.95				
	489	1	19.18	7.000000000000001	0.0	0.0	1	1.035	0.0	110.0	1	1.12	0.95				
	490	1	7.458999999999999	4.0	0.0	0.0	1	1.035	0.0	110.0	1	1.12	0.95				
	491	1	3.197	0.9000000000000001	0.0	0.0	1	1.035	0.0	110.0	1	1.12	0.95				
	492	1	6.393	1.8000000000000003	0.0	0.0	1	1.035	0.0	110.0	1	1.12	0.95				
	493	1	3.7290000000000005	0.0	0.0	0.0	1	1.035	0.0	110.0	1	1.12	0.95				
	494	1	17.049	4.8	0.0	0.0	1	1.035	0.0	110.0	1	1.12	0.95				
	495	1	17.049	4.8	0.0	0.0	1	1.035	0.0	110.0	1	1.12	0.95				
	496	1	24.507	6.9	0.0	0.0	1	1.035	0.0	110.0	1	1.12	0.95				
	497	1	23.762	5.58	0.0	0.0	1	1.035	0.0	110.0	1	1.12	0.95				