%% MATPOWER Case Format : Version 2
function mpc = pglib_opf_case13659_pegase
mpc.version = '2';

%%-----  Power Flow Data  -----%%
%% system MVA base
mpc.baseMVA = 100.0;
%% bus data
%    bus_i    type    Pd    Qd    Gs    Bs    area    Vm    Va    baseKV    zone    Vmax    Vmin
mpc.bus = [
	1	3	0.0	0.0	0.0	0.0	0	1.0	0.0	20.0	6	1.1	0.9				
	2	1	72.68	45.0	0.0	6.61	0	1.0	0.0	150.0	9	1.1	0.9				
	3	1	378.4	98.5	0.0	16.61	0	1.0	0.0	220.0	6	1.1	0.9				
	4	1	134.0	19.1	0.0	0.08	0	1.0	0.0	154.0	1	1.1	0.9				
	5	1	151.0	48.8	0.0	4.69	0	1.0	0.0	220.0	5	1.1	0.9				
	6	1	171.41	23.4	0.0	2.1	0	1.0	0.0	220.0	5	1.1	0.9				
	7	1	45.95	14.000000000000002	0.0	13.34	0	1.0	0.0	220.0	6	1.1	0.9				
	8	1	343.4	53.1	0.70508	36.832433	0	1.0	0.0	380.0	6	1.1	0.9				
	9	1	0.0	0.0	0.0	75.076713	0	1.0	0.0	380.0	5	1.1	0.9				
	10	1	31.03	10.3	0.0	0.65	0	1.0	0.0	110.0	21	1.1	0.9				
	11	1	0.0	0.0	0.0	3.4099999999999997	0	1.0	0.0	154.0	1	1.1	0.9				
	12	2	0.0	0.0	0.0	0.0	0	1.0	0.0	20.0	3	1.1	0.9				
	13	1	14.3	2.0	0.0	1.91	0	1.0	0.0	154.0	1	1.1	0.9				
	14	1	134.0	24.7	0.0	12.44	0	1.0	0.0	220.0	5	1.1	0.9				
	15	1	0.0	0.0	0.0	0.0	0	1.0	0.0	150.0	9	1.1	0.9				
	16	1	-6.11	2.0	0.0	0.4699999999999999	0	1.0	0.0	150.0	9	1.1	0.9				
	17	1	-22.74	-8.32	0.0	6.5	0	1.0	0.0	220.0	6	1.1	0.9				
	18	2	0.0	0.0	0.0	0.0	0	1.0	0.0	20.0	14	1.1	0.9				
	19	1	59.67	26.700000000000003	0.0	12.839999999999998	0	1.0	0.0	220.0	4	1.1	0.9				
	20	1	30.599999999999998	4.3	0.0	5.15	0	1.0	0.0	154.0	1	1.1	0.9				
	21	1	0.0	0.0	0.23445699999999997	-0.19538099999999997	0	1.0	0.0	380.0	6	1.1	0.9				
	22	1	67.67	12.1	0.0	2.18	0	1.0	0.0	220.0	3	1.1	0.9				
	23	1	0.0	0.0	0.295874	20.603438	0	1.0	0.0	380.0	3	1.1	0.9				
	24	1	25.33	7.5	0.0	2.39	0	1.0	0.0	110.0	12	1.1	0.9				
	25	1	1.4	0.2	0.0	4.93	0	1.0	0.0	154.0	1	1.1	0.9				
	26	1	161.2	39.3	0.0	30.709999999999997	0	1.0	0.0	220.0	5	1.1	0.9				
	27	1	0.0	0.0	0.0	0.8500000000000001	0	1.0	0.0	220.0	5	1.1	0.9				
	28	1	19.62	7.1	0.0	1.15	0	1.0	0.0	110.0	19	1.1	0.9				
	29	2	0.0	0.0	0.0	0.0	0	1.0	0.0	20.0	18	1.1	0.9				
	30	1	31.94	8.8	0.0	0.73	0	1.0	0.0	110.0	22	1.1	0.9				
	31	1	0.0	0.0	0.23527699999999996	0.313936	0	1.0	0.0	220.0	3	1.1	0.9				
	32	1	167.3	54.79999999999999	0.0	110.54000000000002	0	1.0	0.0	380.0	5	1.1	0.9				
	33	2	0.0	0.0	0.0	0.0	0	1.0	0.0	20.0	4	1.1	0.9				
	34	1	0.0	0.0	0.0	14.82	0	1.0	0.0	380.0	13	1.1	0.9				
	35	1	0.0	0.0	0.0	0.0	0	1.0	0.0	150.0	9	1.1	0.9				
	36	1	152.9	49.4	0.0	27.65	0	1.0	0.0	380.0	5	1.1	0.9				
	37	1	0.0	0.0	0.0	0.56	0	1.0	0.0	150.0	9	1.1	0.9				
	38	1	69.68	43.2	0.0	6.3	0	1.0	0.0	150.0	9	1.1	0.9				
	39	2	0.0	0.0	0.0	0.0	0	1.0	0.0	20.0	9	1.1	0.9				
	40	1	0.0	0.0	0.0	37.54	0	1.0	0.0	220.0	4	1.1	0.9				
	41	1	0.0	0.0	0.0	0.25	0	1.0	0.0	220.0	4	1.1	0.9				
	42	2	0.0	0.0	0.0	0.0	0	1.0	0.0	11.0	1	1.1	0.9				
	43	1	13.51	4.9	0.0	1.8000000000000003	0	1.0	0.0	110.0	19	1.1	0.9				
	44	1	10.51	3.5000000000000004	0.0	0.31	0	1.0	0.0	110.0	12	1.1	0.9				
	45	2	0.0	0.0	0.0	0.0	0	1.0	0.0	20.0	4	1.1	0.9				
	46	1	0.0	0.0	0.12	15.340000000000002	0	1.0	0.0	220.0	19	1.1	0.9				
	47	1	9.21	2.6	0.0	2.0	0	1.0	0.0	110.0	18	1.1	0.9				
	48	1	42.75	12.8	0.0	13.3	0	1.0	0.0	220.0	8	1.1	0.9				
	49	1	0.0	0.0	0.019959	0.320041	0	1.0	0.0	150.0	10	1.1	0.9				
	50	1	16.02	4.54	0.0	0.1	0	1.0	0.0	110.0	23	1.1	0.9				
	51	2	0.0	0.0	0.0	0.0	0	1.0	0.0	14.4	1	1.1	0.9				
	52	1	27.9	4.0	0.0	4.23	0	1.0	0.0	154.0	1	1.1	0.9				
	53	1	20.82	7.9	0.0	26.890000000000004	0	1.0	0.0	380.0	4	1.1	0.9				
	54	2	0.0	0.0	0.0	0.0	0	1.0	0.0	20.0	14	1.1	0.9				
	55	1	0.0	0.0	0.0	7.2700000000000005	0	1.0	0.0	220.0	5	1.1	0.9				
	56	1	10.11	3.7000000000000006	0.0	0.8100000000000002	0	1.0	0.0	110.0	19	1.1	0.9				
	57	1	10.01	2.7	0.0	1.14	0	1.0	0.0	110.0	18	1.1	0.9				
	58	1	6.309999999999999	0.0	0.0	0.67	0	1.0	0.0	110.0	18	1.1	0.9				
	59	1	2.9	0.9000000000000001	0.0	0.6	0	1.0	0.0	110.0	15	1.1	0.9				
	60	1	0.0	0.0	0.318913	17.760815	0	1.0	0.0	220.0	6	1.1	0.9				
	61	1	0.0	0.0	0.549745	0.432068	0	1.0	0.0	380.0	2	1.1	0.9				
	62	2	0.0	0.0	0.0	0.0	0	1.0	0.0	20.0	5	1.1	0.9				
	63	2	0.0	0.0	0.0	0.0	0	1.0	0.0	20.0	5	1.1	0.9				
	64	1	151.8	48.3	0.0	5.53	0	1.0	0.0	220.0	4	1.1	0.9				
	65	1	127.60000000000001	31.8	0.0	20.51	0	1.0	0.0	150.0	8	1.1	0.9				
	66	2	0.0	0.0	0.0	0.0	0	1.0	0.0	20.0	22	1.1	0.9				
	67	1	0.0	0.0	0.0	0.84	0	1.0	0.0	110.0	21	1.1	0.9				
	68	2	0.0	0.0	0.0	0.0	0	1.0	0.0	20.0	4	1.1	0.9				
	69	2	0.0	0.0	0.0	0.0	0	1.0	0.0	20.0	4	1.1	0.9				
	70	1	110.5	-26.8	0.0	16.37	0	1.0	0.0	220.0	6	1.1	0.9				
	71	1	0.0	0.0	0.0	0.0	0	1.0	0.0	20.0	5	1.1	0.9				
	72	1	0.0	0.0	0.0	0.0	0	1.0	0.0	20.0	5	1.1	0.9				
	73	1	0.0	0.0	0.0	1.23	0	1.0	0.0	220.0	3	1.1	0.9				
	74	1	0.0	0.0	0.0	0.0	0	1.0	0.0	20.0	5	1.1	0.9				
	75	1	0.0	0.0	0.0	0.0	0	1.0	0.0	20.0	5	1.1	0.9				
	76	1	0.0	0.0	0.0	0.0	0	1.0	0.0	20.0	5	1.1	0.9				
	77	2	0.0	0.0	0.0	0.0	0	1.0	0.0	20.0	5	1.1	0.9				
	78	2	0.0	0.0	0.0	0.0	0	1.0	0.0	20.0	5	1.1	0.9				
	79	2	0.0	0.0	0.0	0.0	0	1.0	0.0	20.0	5	1.1	0.9				
	80	1	140.0	79.7	0.0	6.5	0	1.0	0.0	220.0	3	1.1	0.9				
	81	1	21.6	3.0	0.0	3.54	0	1.0	0.0	154.0	1	1.1	0.9				
	82	1	0.0	0.0	0.0	2.31	0	1.0	0.0	380.0	5	1.1	0.9				
	83	1	119.19999999999999	20.7	0.0	3.3099999999999996	0	1.0	0.0	220.0	5	1.1	0.9				
	84	1	26.43	9.9	0.0	9.57	0	1.0	0.0	110.0	22	1.1	0.9				
	85	1	0.24	-1.66	0.0	0.65	0	1.0	0.0	110.0	18	1.1	0.9				
	86	2	0.0	0.0	0.0	0.0	0	1.0	0.0	20.0	6	1.1	0.9				
	87	1	0.0	0.0	0.0	0.0	0	1.0	0.0	20.0	6	1.1	0.9				
	88	1	0.0	0.0	0.0	0.0	0	1.0	0.0	20.0	6	1.1	0.9				
	89	1	0.0	0.0	0.0	58.57	0	1.0	0.0	380.0	3	1.1	0.9				
	90	1	0.0	0.0	0.0	1.34	0	1.0	0.0	110.0	18	1.1	0.9				
	91	1	187.9	110.2	0.0	21.25	0	1.0	0.0	380.0	3	1.1	0.9				
	92	1	14.92	5.5	0.0	1.31	0	1.0	0.0	110.0	15	1.1	0.9				
	93	1	-18.52	6.1	0.0	0.79	0	1.0	0.0	150.0	9	1.1	0.9				
	94	2	0.0	0.0	0.0	0.0	0	1.0	0.0	11.0	1	1.1	0.9				
	95	1	4.61	1.7000000000000002	0.0	2.32	0	1.0	0.0	110.0	19	1.1	0.9				
	96	2	0.0	0.0	0.0	0.0	0	1.0	0.0	20.0	4	1.1	0.9				
	97	2	0.0	0.0	0.0	0.0	0	1.0	0.0	20.0	4	1.1	0.9				
	98	2	0.0	0.0	0.0	0.0	0	1.0	0.0	20.0	4	1.1	0.9				
	99	2	0.0	0.0	0.0	0.0	0	1.0	0.0	20.0	4	1.1	0.9				
	100	2	0.0	0.0	0.0	0.0	0	1.0	0.0	20.0	4	1.1	0.9				
	101	2	0.0	0.0	0.0	0.0	0	1.0	0.0	20.0	4	1.1	0.9				
	102	2	0.0	0.0	0.0	0.0	0	1.0	0.0	20.0	4	1.1	0.9				
	103	1	62.86999999999999	20.5	0.0	1.15	0	1.0	0.0	150.0	8	1.1	0.9				
	104	2	0.0	0.0	0.0	0.0	0	1.0	0.0	20.0	3	1.1	0.9				
	105	1	13.5	14.800000000000002	0.0	132.435168	0	1.0	0.0	380.0	9	1.2	0.8				
	106	1	126.29999999999998	42.4	0.0	55.24	0	1.0	0.0	150.0	8	1.1	0.9				
	107	2	0.0	0.0	0.0	0.0	0	1.0	0.0	20.0	3	1.1	0.9				
	108	1	6.909999999999999	-4.6	0.0	5.75	0	1.0	0.0	220.0	4	1.1	0.9				
	109	1	15.72	5.2	0.0	0.11	0	1.0	0.0	110.0	12	1.1	0.9				
	110	2	0.0	0.0	0.0	0.0	0	1.0	0.0	20.0	3	1.1	0.9				
	111	1	16.12	4.3	0.0	0.49	0	1.0	0.0	110.0	23	1.1	0.9				
	112	1	38.74	6.1	0.0	1.17	0	1.0	0.0	220.0	4	1.1	0.9				
	113	1	22.13	10.7	0.0	14.21	0	1.0	0.0	220.0	8	1.1	0.9				
	114	2	0.0	0.0	0.0	0.0	0	1.0	0.0	20.0	4	1.1	0.9				
	115	2	0.0	0.0	0.0	0.0	0	1.0	0.0	20.0	10	1.1	0.9				
	116	1	0.0	0.0	0.0	0.73	0	1.0	0.0	220.0	4	1.1	0.9				
	117	1	0.0	0.0	0.0	0.83	0	1.0	0.0	110.0	18	1.1	0.9				
	118	1	138.8	136.7	0.0	8.76	0	1.0	0.0	380.0	3	1.1	0.9				
	119	1	137.3	66.4	0.174767	14.17407	0	1.0	0.0	220.0	23	1.1	0.9				
	120	1	67.76	19.18	0.0	1.47	0	1.0	0.0	150.0	1	1.1	0.9				
	121	2	0.0	0.0	0.0	0.0	0	1.0	0.0	20.0	14	1.1	0.9				
	122	1	0.0	0.0	0.0	6.619999999999999	0	1.0	0.0	220.0	3	1.1	0.9				
	123	1	0.0	0.0	0.0	7.22	0	1.0	0.0	380.0	1	1.1	0.9				
	124	1	1.0	0.3	0.0	0.19	0	1.0	0.0	110.0	19	1.1	0.9				
	125	1	20.9	3.0	0.0	5.74	0	1.0	0.0	154.0	1	1.1	0.9				
	126	1	0.0	0.0	0.0	0.12	0	1.0	0.0	150.0	9	1.1	0.9				
	127	1	21.52	5.1	0.0	0.5	0	1.0	0.0	110.0	18	1.1	0.9				
	128	1	71.98	28.800000000000004	0.0	11.0	0	1.0	0.0	220.0	6	1.1	0.9				
	129	1	0.0	0.0	0.205132	4.470744	0	1.0	0.0	380.0	2	1.1	0.9				
	130	1	363.25	115.38999999999999	0.0	3.95	0	1.0	0.0	220.0	5	1.1	0.9				
	131	1	192.9	73.3	0.0	20.75	0	1.0	0.0	380.0	3	1.1	0.9				
	132	2	0.0	0.0	0.0	0.0	0	1.0	0.0	11.0	1	1.1	0.9				
	133	2	0.0	0.0	0.0	0.0	0	1.0	0.0	20.0	14	1.1	0.9				
	134	2	0.0	0.0	0.0	0.0	0	1.0	0.0	20.0	4	1.1	0.9				
	135	2	0.0	0.0	0.0	0.0	0	1.0	0.0	20.0	4	1.1	0.9				
	136	2	0.0	0.0	0.0	0.0	0	1.0	0.0	20.0	3	1.1	0.9				
	137	1	17.52	6.3	0.0	0.26	0	1.0	0.0	110.0	19	1.1	0.9				
	138	1	33.14	12.0	0.0	0.65	0	1.0	0.0	110.0	19	1.1	0.9				
	139	1	40.44	25.0	0.0	9.82	0	1.0	0.0	150.0	9	1.1	0.9				
	140	1	193.17	53.37	0.0	4.58	0	1.0	0.0	220.0	5	1.1	0.9				
	141	1	90.7	25.5	0.0	3.11	0	1.0	0.0	220.0	3	1.2	0.8				
	142	1	176.3	-58.9	0.0	24.77	0	1.0	0.0	380.0	6	1.1	0.9				
	143	1	35.94	22.3	0.0	0.0	0	1.0	0.0	150.0	9	1.1	0.9				
	144	2	0.0	0.0	0.0	0.0	0	1.0	0.0	20.0	14	1.1	0.9				
	145	2	0.0	0.0	0.0	0.0	0	1.0	0.0	20.0	5	1.1	0.9				
	146	2	0.0	0.0	0.0	0.0	0	1.0	0.0	20.0	5	1.1	0.9				
	147	2	0.0	0.0	0.0	0.0	0	1.0	0.0	20.0	5	1.1	0.9				
	148	1	143.9	123.2	0.0	72.64	0	1.0	0.0	380.0	3	1.1	0.9				
	149	1	0.0	0.0	0.0	3.7699999999999996	0	1.0	0.0	220.0	6	1.1	0.9				
	150	1	0.0	8.4	0.0	15.72	0	1.0	0.0	150.0	9	1.1	0.9				
	151	2	0.0	0.0	0.0	0.0	0	1.0	0.0	13.8	1	1.1	0.9				
	152	1	51.35999999999999	-8.8	0.0	2.15	0	1.0	0.0	220.0	6	1.1	0.9				
	153	2	0.0	0.0	0.0	0.0	0	1.0	0.0	20.0	14	1.1	0.9				
	154	2	0.0	0.0	0.0	0.0	0	1.0	0.0	20.0	3	1.1	0.9				
	155	1	0.0	0.0	0.0	82.55	0	1.0	0.0	380.0	6	1.1	0.9				
	156	2	0.0	0.0	0.0	0.0	0	1.0	0.0	20.0	6	1.1	0.9				
	157	1	322.7	11.9	0.0	10.28	0	1.0	0.0	380.0	6	1.1	0.9				
	158	1	303.6	79.8	0.019533	1.690467	0	1.0	0.0	220.0	5	1.1	0.9				
	159	1	3.8	1.3	0.0	0.4	0	1.0	0.0	110.0	18	1.1	0.9				
	160	1	137.0	19.5	0.0	4.9	0	1.0	0.0	154.0	1	1.1	0.9				
	161	2	0.0	0.0	0.0	0.0	0	1.0	0.0	20.0	6	1.1	0.9				
	162	2	0.0	0.0	0.0	0.0	0	1.0	0.0	20.0	6	1.1	0.9				
	163	1	0.0	0.0	0.0	0.0	0	1.0	0.0	150.0	9	1.1	0.9				
	164	1	61.07	36.0	0.0	3.09	0	1.0	0.0	220.0	11	1.1	0.9				
	165	2	0.0	0.0	0.0	0.0	0	1.0	0.0	20.0	4	1.1	0.9				
	166	1	0.0	0.0	0.0	3.2400000000000007	0	1.0	0.0	220.0	3	1.1	0.9				
	167	1	0.0	0.0	0.0	6.520302999999999	0	1.0	0.0	380.0	5	1.1	0.9				
	168	1	55.7	7.9	0.0	4.21	0	1.0	0.0	154.0	1	1.1	0.9				
	169	1	0.0	0.0	0.0	4.21	0	1.0	0.0	220.0	5	1.1	0.9				
	170	1	1.8000000000000003	0.7	0.0	0.3	0	1.0	0.0	110.0	19	1.1	0.9				
	171	1	0.0	0.0	0.0	0.71	0	1.0	0.0	150.0	9	1.1	0.9				
	172	1	2.5	0.0	0.0	0.96	0	1.0	0.0	110.0	18	1.1	0.9				
	173	1	0.0	0.0	0.0	0.09	0	1.0	0.0	150.0	9	1.1	0.9				
	174	1	38.94	11.0	0.0	0.64	0	1.0	0.0	110.0	1	1.1	0.9				
	175	1	45.15	14.099999999999998	0.0	0.19	0	1.0	0.0	110.0	15	1.1	0.9				
	176	1	0.0	0.0	0.0	5.75	0	1.0	0.0	220.0	3	1.1	0.9				
	177	1	0.0	0.0	0.019004	4.360996	0	1.0	0.0	220.0	11	1.1	0.9				
	178	1	0.0	0.0	0.566322	-0.241138	0	1.0	0.0	220.0	5	1.1	0.9				
	179	2	0.0	0.0	0.0	0.0	0	1.0	0.0	20.0	4	1.1	0.9				
	180	1	17.22	5.7	0.0	1.22	0	1.0	0.0	110.0	21	1.1	0.9				
	181	1	0.0	0.0	0.0	0.0	0	1.0	0.0	20.0	14	1.1	0.9				
	182	2	0.0	0.0	0.0	0.0	0	1.0	0.0	20.0	20	1.1	0.9				
	183	1	0.0	0.0	0.0	4.3	0	1.0	0.0	220.0	6	1.1	0.9				
	184	1	23.73	12.7	0.0	0.52	0	1.0	0.0	220.0	5	1.1	0.9				
	185	1	121.9	7.400000000000001	0.0	1.34	0	1.0	0.0	220.0	3	1.1	0.9				
	186	1	0.0	0.0	0.135375	47.750675	0	1.0	0.0	380.0	10	1.1	0.9				
	187	1	47.35	16.4	0.0	4.08	0	1.0	0.0	110.0	22	1.1	0.9				
	188	1	0.0	0.0	0.0	0.0	0	1.0	0.0	20.0	4	1.1	0.9				
	189	1	0.0	0.0	0.0	21.39	0	1.0	0.0	380.0	1	1.1	0.9				
	190	1	38.14	12.5	0.0	6.280000000000001	0	1.0	0.0	150.0	8	1.1	0.9				
	191	1	54.2	7.8	0.0	94.9	0	1.0	0.0	400.0	1	1.1	0.9				
	192	1	130.6	84.9	0.0	4.22	0	1.0	0.0	220.0	7	1.1	0.9				
	193	1	7.91	2.6	0.0	0.74	0	1.0	0.0	110.0	12	1.1	0.9				
	194	1	42.1	74.61	0.0	37.58	0	1.0	0.0	150.0	1	1.1	0.9				
	195	1	-75.38	7.8	0.0	29.9	0	1.0	0.0	380.0	10	1.1	0.9				
	196	2	0.0	0.0	0.0	0.0	0	1.0	0.0	20.0	6	1.1	0.9				
	197	2	0.0	0.0	0.0	0.0	0	1.0	0.0	20.0	4	1.1	0.9				
	198	1	41.05	14.3	0.0	11.53	0	1.0	0.0	220.0	6	1.1	0.9				
	199	1	0.0	0.0	0.0	4.14	0	1.0	0.0	220.0	8	1.1	0.9				
	200	1	100.9	49.3	0.020067	4.329933	0	1.0	0.0	220.0	13	1.1	0.9				
	201	1	0.0	0.0	0.116699	1.102475	0	1.0	0.0	220.0	6	1.1	0.9				
	202	1	0.0	0.0	0.0	0.0	0	1.0	0.0	150.0	8	1.1	0.9				
	203	1	0.0	0.0	0.0	2.03	0	1.0	0.0	220.0	5	1.1	0.9				
	204	1	0.0	0.0	0.0	98.53	0	1.0	0.0	380.0	14	1.1	0.9				
	205	1	2.8	264.7	0.529803	56.537931	0	1.0	0.0	380.0	4	1.1	0.9				
	206	1	38.34	5.6	0.0	7.64	0	1.0	0.0	220.0	5	1.1	0.9				
	207	2	0.0	0.0	0.0	0.0	0	1.0	0.0	20.0	5	1.1	0.9				
	208	1	269.6	65.7	0.0	0.0	0	1.0	0.0	120.0	20	1.2	0.8				
	209	1	-8.71	-19.54	0.0	0.0	0	1.0	0.0	150.0	8	1.1	0.9				
	210	1	160.0	3.3000000000000003	0.076728	5.693272	0	1.0	0.0	220.0	7	1.1	0.9				
	211	1	32.34	12.0	0.0	6.1	0	1.0	0.0	220.0	5	1.1	0.9				
	212	1	100.1	45.1	0.0	1.11	0	1.0	0.0	380.0	6	1.1	0.9				
	213	1	12.31	3.9	0.076917	5.053083	0	1.0	0.0	220.0	5	1.1	0.9				
	214	1	131.75	24.35	0.0	4.48	0	1.0	0.0	154.0	1	1.1	0.9				
	215	1	0.0	0.0	0.0	107.28999999999999	0	1.0	0.0	400.0	1	1.1	0.9				
	216	1	0.0	0.0	0.0	20.96	0	1.0	0.0	220.0	4	1.1	0.9				
	217	1	0.0	0.0	0.0	0.56	0	1.0	0.0	150.0	7	1.1	0.9				
	218	1	0.0	0.0	0.0	1.29	0	1.0	0.0	110.0	12	1.1	0.9				
	219	1	0.0	0.0	0.0	1.7000000000000002	0	1.0	0.0	110.0	21	1.1	0.9				
	220	2	0.0	0.0	0.0	0.0	0	1.0	0.0	20.0	3	1.1	0.9				
	221	2	0.0	0.0	0.0	0.0	0	1.0	0.0	20.0	3	1.1	0.9				
	222	2	0.0	0.0	0.0	0.0	0	1.0	0.0	20.0	3	1.1	0.9				
	223	2	0.0	0.0	0.0	0.0	0	1.0	0.0	20.0	3	1.1	0.9				
	224	2	0.0	0.0	0.0	0.0	0	1.0	0.0	20.0	3	1.1	0.9				
	225	2	0.0	0.0	0.0	0.0	0	1.0	0.0	20.0	3	1.1	0.9				
	226	1	9.21	3.3000000000000003	0.0	1.2	0	1.0	0.0	110.0	19	1.1	0.9				
	227	1	0.0	0.0	0.48861599999999994	70.580637	0	1.0	0.0	380.0	5	1.1	0.9				
	228	1	166.0	60.3	0.0	0.57	0	1.0	0.0	220.0	3	1.1	0.9				
	229	2	0.0	0.0	0.0	0.0	0	1.0	0.0	20.0	10	1.1	0.9				
	230	1	0.0	0.0	0.0	0.1	0	1.0	0.0	150.0	9	1.1	0.9				
	231	1	79.4	11.3	0.0	4.92	0	1.0	0.0	154.0	1	1.1	0.9				
	232	1	0.0	0.0	0.0	0.16	0	1.0	0.0	150.0	9	1.1	0.9				
	233	1	0.0	0.0	0.0	66.65	0	1.0	0.0	380.0	6	1.1	0.9				
	234	1	-597.44	-326.86	0.0	0.0	0	1.0	0.0	27.0	3	1.1	0.9				
	235	1	147.76	32.73	0.0	8.34	0	1.0	0.0	220.0	5	1.1	0.9				
	236	1	0.0	0.0	0.0	5.17	0	1.0	0.0	150.0	8	1.1	0.9				
	237	1	26.8	-3.7000000000000006	0.0	51.261677999999996	0	1.0	0.0	380.0	9	1.1	0.9				
	238	1	0.0	0.0	0.176128	3.073227	0	1.0	0.0	220.0	3	1.1	0.9				
	239	1	257.5	131.1	0.0	1.08	0	1.0	0.0	220.0	3	1.1	0.9				
	240	1	16.7	2.4	0.0	6.09	0	1.0	0.0	154.0	1	1.1	0.9				
	241	2	0.0	0.0	0.0	0.0	0	1.0	0.0	20.0	14	1.1	0.9				
	242	1	0.0	0.0	0.0	1.91	0	1.0	0.0	150.0	9	1.1	0.9				
	243	2	0.0	0.0	0.0	0.0	0	1.0	0.0	20.0	3	1.1	0.9				
	244	1	100.8	13.200000000000001	0.0	5.24	0	1.0	0.0	220.0	5	1.1	0.9				
	245	1	111.7	10.96	0.0	4.22	0	1.0	0.0	220.0	4	1.1	0.9				
	246	1	90.38	-5.05	0.0	8.49	0	1.0	0.0	220.0	13	1.1	0.9				
	247	1	370.5	-17.0	0.0	9.91	0	1.0	0.0	220.0	5	1.1	0.9				
	248	2	0.0	0.0	0.0	0.0	0	1.0	0.0	20.0	10	1.1	0.9				
	249	1	41.05	-46.0	0.056872	19.253128	0	1.0	0.0	220.0	11	1.1	0.9				
	250	2	0.0	0.0	0.0	0.0	0	1.0	0.0	20.0	4	1.1	0.9				
	251	1	9.91	3.2	0.0	0.67	0	1.0	0.0	110.0	12	1.1	0.9				
	252	1	-0.69	-5.46	0.0	5.07	0	1.0	0.0	150.0	9	1.1	0.9				
	253	1	55.46	8.4	0.0	5.0	0	1.0	0.0	220.0	4	1.1	0.9				
	254	1	94.9	36.2	0.0	16.46	0	1.0	0.0	220.0	10	1.1	0.9				
	255	1	81.09	48.0	0.0	0.03	0	1.0	0.0	150.0	9	1.1	0.9				
	256	1	0.0	0.0	0.0	113.7	0	1.0	0.0	380.0	18	1.2	0.8				
	257	1	210.4	159.2	0.100208	131.579896	0	1.0	0.0	380.0	4	1.1	0.9				
	258	2	0.0	0.0	0.0	0.0	0	1.0	0.0	10.6	1	1.1	0.9				
	259	2	0.0	0.0	0.0	0.0	0	1.0	0.0	20.0	14	1.1	0.9				
	260	1	19.32	26.0	0.0	0.69	0	1.0	0.0	220.0	3	1.1	0.9				
	261	1	29.830000000000002	7.3	0.0	6.49	0	1.0	0.0	220.0	5	1.1	0.9				
	262	1	0.0	0.0	0.0	2.42	0	1.0	0.0	220.0	5	1.1	0.9				
	263	1	20.9	3.0	0.0	4.11	0	1.0	0.0	154.0	1	1.1	0.9				
	264	1	19.92	6.6000000000000005	0.0	0.56	0	1.0	0.0	110.0	21	1.1	0.9				
	265	1	57.16	2.0	0.0	1.48	0	1.0	0.0	110.0	22	1.1	0.9				
	266	2	0.0	0.0	0.0	0.0	0	1.0	0.0	20.0	18	1.1	0.9				
	267	1	36.84	13.900000000000002	0.0	3.3000000000000003	0	1.0	0.0	220.0	5	1.1	0.9				
	268	1	-15.039999999999997	-5.12	0.0	0.43	0	1.0	0.0	110.0	18	1.1	0.9				
	269	1	9.21	6.0	0.060011999999999996	0.149988	0	1.0	0.0	110.0	19	1.1	0.9				
	270	2	0.0	0.0	0.0	0.0	0	1.0	0.0	10.6	1	1.1	0.9				
	271	2	0.0	0.0	0.0	0.0	0	1.0	0.0	20.0	5	1.1	0.9				
	272	1	0.0	0.0	0.114032	0.684974	0	1.0	0.0	380.0	3	1.1	0.9				
	273	2	0.0	0.0	0.0	0.0	0	1.0	0.0	20.0	5	1.1	0.9				
	274	2	0.0	0.0	0.0	0.0	0	1.0	0.0	20.0	5	1.1	0.9				
	275	2	0.0	0.0	0.0	0.0	0	1.0	0.0	20.0	5	1.1	0.9				
	276	2	0.0	0.0	0.0	0.0	0	1.0	0.0	20.0	5	1.1	0.9				
	277	1	119.9	3.7000000000000006	0.0	3.3300000000000005	0	1.0	0.0	220.0	3	1.1	0.9				
	278	2	0.0	0.0	0.0	0.0	0	1.0	0.0	21.0	1	1.1	0.9				
	279	1	0.0	0.0	0.172756	-0.134366	0	1.0	0.0	150.0	8	1.1	0.9				
	280	1	0.0	0.0	0.039023	0.210733	0	1.0	0.0	220.0	6	1.1	0.9				
	281	1	73.14	21.55	0.0	8.52	0	1.0	0.0	220.0	5	1.1	0.9				
	282	1	0.0	0.0	0.0	12.48	0	1.0	0.0	220.0	5	1.1	0.9				
	283	2	0.0	0.0	0.0	0.0	0	1.0	0.0	11.0	1	1.1	0.9				
	284	1	0.0	0.0	0.401208	101.317571	0	1.0	0.0	380.0	3	1.2	0.8				
	285	1	39.74	11.8	0.0	1.44	0	1.0	0.0	220.0	5	1.1	0.9				
	286	1	44.35	5.1	0.0	4.0	0	1.0	0.0	220.0	4	1.1	0.9				
	287	1	86.8	28.4	0.0	1.34	0	1.0	0.0	150.0	8	1.1	0.9				
	288	1	50.56	5.9	0.0	10.58	0	1.0	0.0	220.0	4	1.1	0.9				
	289	2	0.0	0.0	0.0	0.0	0	1.0	0.0	20.0	10	1.1	0.9				
	290	1	0.0	0.0	0.0	4.73	0	1.0	0.0	220.0	4	1.1	0.9				
	291	1	110.9	32.7	0.0	15.4	0	1.0	0.0	220.0	14	1.1	0.9				
	292	1	18.2	2.6	0.0	12.38	0	1.0	0.0	154.0	1	1.1	0.9				
	293	1	0.0	0.0	0.181549	14.690889000000002	0	1.0	0.0	220.0	18	1.1	0.9				
	294	2	0.0	0.0	0.0	0.0	0	1.0	0.0	14.4	1	1.1	0.9				
	295	1	46.15	18.2	0.0	1.29	0	1.0	0.0	150.0	8	1.1	0.9				
	296	2	0.0	0.0	0.0	0.0	0	1.0	0.0	6.3	1	1.1	0.9				
	297	1	55.46	15.7	0.0	13.459999999999999	0	1.0	0.0	220.0	4	1.1	0.9				
	298	1	34.04	12.3	0.0	0.22999999999999998	0	1.0	0.0	110.0	19	1.1	0.9				
	299	2	0.0	0.0	0.0	0.0	0	1.0	0.0	11.0	1	1.1	0.9				
	300	1	321.98	84.4	0.0	1.34	0	1.0	0.0	220.0	5	1.1	0.9				
	301	1	42.55	8.2	0.0	2.06	0	1.0	0.0	220.0	5	1.1	0.9				
	302	1	33.44	10.0	0.0	1.36	0	1.0	0.0	110.0	3	1.1	0.9				
	303	1	0.0	0.0	0.019646	0.570354	0	1.0	0.0	110.0	12	1.1	0.9				
	304	2	0.0	0.0	0.0	0.0	0	1.0	0.0	20.0	4	1.1	0.9				
	305	2	0.0	0.0	0.0	0.0	0	1.0	0.0	20.0	5	1.1	0.9				
	306	2	0.0	0.0	0.0	0.0	0	1.0	0.0	20.0	5	1.1	0.9				
	307	2	0.0	0.0	0.0	0.0	0	1.0	0.0	20.0	5	1.1	0.9				
	308	2	0.0	0.0	0.0	0.0	0	1.0	0.0	20.0	5	1.1	0.9				
	309	2	0.0	0.0	0.0	0.0	0	1.0	0.0	20.0	5	1.1	0.9				
	310	2	0.0	0.0	0.0	0.0	0	1.0	0.0	20.0	5	1.1	0.9				
	311	2	0.0	0.0	0.0	0.0	0	1.0	0.0	20.0	5	1.1	0.9				
	312	2	0.0	0.0	0.0	0.0	0	1.0	0.0	20.0	5	1.1	0.9				
	313	1	-24.99	-4.94	0.0	6.99	0	1.0	0.0	220.0	3	1.2	0.8				
	314	1	95.69	24.54	0.0	2.85	0	1.0	0.0	220.0	13	1.1	0.9				
	315	2	0.0	0.0	0.0	0.0	0	1.0	0.0	6.3	1	1.1	0.9				
	316	1	37.34	10.9	0.0	0.63	0	1.0	0.0	110.0	1	1.1	0.9				
	317	1	340.0	93.8	0.230291	74.777686	0	1.0	0.0	380.0	13	1.1	0.9				
	318	1	0.0	0.0	0.0	2.04	0	1.0	0.0	150.0	9	1.1	0.9				
	319	1	155.6	54.7	0.0	2.21	0	1.0	0.0	220.0	5	1.1	0.9				
	320	1	105.2	0.1	0.0	7.359999999999999	0	1.0	0.0	220.0	5	1.1	0.9				
	321	1	69.83	15.120000000000001	0.0	2.23	0	1.0	0.0	220.0	5	1.1	0.9				
	322	1	0.0	0.0	1.107693	6.867601	0	1.0	0.0	380.0	7	1.1	0.9				
	323	2	0.0	0.0	0.0	0.0	0	1.0	0.0	20.0	5	1.1	0.9				
	324	2	0.0	0.0	0.0	0.0	0	1.0	0.0	11.0	1	1.1	0.9				
	325	2	0.0	0.0	0.0	0.0	0	1.0	0.0	6.3	1	1.1	0.9				
	326	1	0.0	0.0	0.19769600000000004	3.784535	0	1.0	0.0	380.0	5	1.1	0.9				
	327	1	176.2	20.8	0.019425	4.590288	0	1.0	0.0	150.0	1	1.1	0.9				
	328	2	0.0	0.0	0.0	0.0	0	1.0	0.0	20.0	10	1.1	0.9				
	329	1	27.029999999999998	8.8	0.0	1.8399999999999999	0	1.0	0.0	110.0	21	1.1	0.9				
	330	1	0.0	0.0	0.0	0.28	0	1.0	0.0	150.0	6	1.1	0.9				
	331	2	0.0	0.0	0.0	0.0	0	1.0	0.0	13.8	1	1.1	0.9				
	332	2	0.0	0.0	0.0	0.0	0	1.0	0.0	6.3	1	1.1	0.9				
	333	1	0.0	0.0	0.0	1.15	0	1.0	0.0	220.0	5	1.1	0.9				
	334	1	0.0	0.0	0.0	0.0	0	1.0	0.0	20.0	4	1.1	0.9				
	335	1	14.62	4.8	0.0	1.02	0	1.0	0.0	110.0	12	1.1	0.9				
	336	2	0.0	0.0	0.0	0.0	0	1.0	0.0	20.0	4	1.1	0.9				
	337	1	0.0	0.0	0.0	0.0	0	1.0	0.0	20.0	4	1.1	0.9				
	338	2	0.0	0.0	0.0	0.0	0	1.0	0.0	20.0	4	1.1	0.9				
	339	1	0.0	0.0	0.0	0.0	0	1.0	0.0	20.0	4	1.1	0.9				
	340	1	45.05	-2.2	0.0	3.9599999999999995	0	1.0	0.0	220.0	4	1.1	0.9				
	341	1	0.0	0.0	0.0	2.55	0	1.0	0.0	220.0	7	1.1	0.9				
	342	1	-23.43	57.4	0.0	0.0	0	1.0	0.0	150.0	2	1.1	0.9				
	343	1	426.6	93.7	0.0	80.94	0	1.0	0.0	380.0	6	1.1	0.9				
	344	1	152.07	22.52	0.0	7.870000000000001	0	1.0	0.0	220.0	4	1.1	0.9				
	345	2	0.0	0.0	0.0	0.0	0	1.0	0.0	20.0	4	1.1	0.9				
	346	2	0.0	0.0	0.0	0.0	0	1.0	0.0	20.0	4	1.1	0.9				
	347	1	0.0	0.0	0.0	0.7	0	1.0	0.0	150.0	9	1.1	0.9				
	348	1	2.5	3.8	0.0	0.15	0	1.0	0.0	110.0	18	1.1	0.9				
	349	1	30.53	10.9	0.589029	2.678252	0	1.0	0.0	220.0	19	1.1	0.9				
	350	1	34.04	4.4	0.0	1.25	0	1.0	0.0	110.0	22	1.1	0.9				
	351	2	0.0	0.0	0.0	0.0	0	1.0	0.0	20.0	6	1.1	0.9				
	352	1	45.85	7.000000000000001	0.0	1.05	0	1.0	0.0	220.0	4	1.1	0.9				
	353	1	0.0	0.0	0.0	30.97	0	1.0	0.0	380.0	3	1.1	0.9				
	354	2	0.0	0.0	0.0	0.0	0	1.0	0.0	20.0	14	1.1	0.9				
	355	1	46.05	16.9	0.03829	0.29171	0	1.0	0.0	110.0	19	1.1	0.9				
	356	1	0.0	0.0	0.0	0.0	0	1.0	0.0	150.0	9	1.1	0.9				
	357	1	0.0	0.0	0.0	3.95	0	1.0	0.0	220.0	3	1.1	0.9				
	358	2	0.0	0.0	0.0	0.0	0	1.0	0.0	20.0	10	1.1	0.9				
	359	1	-876.96	-325.87	0.0	0.0	0	1.0	0.0	27.0	3	1.1	0.9				
	360	2	0.0	0.0	0.0	0.0	0	1.0	0.0	20.0	4	1.1	0.9				
	361	2	0.0	0.0	0.0	0.0	0	1.0	0.0	20.0	4	1.1	0.9				
	362	2	0.0	0.0	0.0	0.0	0	1.0	0.0	20.0	4	1.1	0.9				
	363	2	0.0	0.0	0.0	0.0	0	1.0	0.0	20.0	4	1.1	0.9				
	364	2	0.0	0.0	0.0	0.0	0	1.0	0.0	20.0	4	1.1	0.9				
	365	2	0.0	0.0	0.0	0.0	0	1.0	0.0	15.75	1	1.1	0.9				
	366	1	167.9	18.2	0.0	5.97	0	1.0	0.0	220.0	3	1.1	0.9				
	367	1	0.0	0.0	0.0	13.489999999999998	0	1.0	0.0	150.0	8	1.1	0.9				
	368	2	0.0	0.0	0.0	0.0	0	1.0	0.0	20.0	4	1.1	0.9				
	369	2	0.0	0.0	0.0	0.0	0	1.0	0.0	20.0	4	1.1	0.9				
	370	1	0.0	0.0	0.0	0.68	0	1.0	0.0	150.0	8	1.1	0.9				
	371	1	44.35	14.800000000000002	0.0	1.94	0	1.0	0.0	110.0	21	1.1	0.9				
	372	1	131.9	31.1	0.457733	14.047628000000001	0	1.0	0.0	220.0	1	1.1	0.9				
	373	1	0.0	0.0	0.0	0.72	0	1.0	0.0	110.0	18	1.1	0.9				
	374	1	224.2	73.9	0.039171	84.090829	0	1.0	0.0	380.0	13	1.1	0.9				
	375	1	0.0	0.0	0.0	26.3	0	1.0	0.0	220.0	4	1.1	0.9				
	376	1	128.9	73.7	0.0	25.370000000000005	0	1.0	0.0	380.0	3	1.1	0.9				
	377	1	0.0	0.0	0.0	0.0	0	1.0	0.0	20.0	22	1.1	0.9				
	378	1	0.0	0.0	0.0	0.0	0	1.0	0.0	20.0	22	1.1	0.9				
	379	1	0.0	0.0	0.0	13.849999999999998	0	1.0	0.0	380.0	3	1.1	0.9				
	380	1	118.40000000000002	16.9	0.0	8.02	0	1.0	0.0	154.0	1	1.1	0.9				
	381	1	0.0	0.0	0.0	0.0	0	1.0	0.0	20.0	22	1.1	0.9				
	382	2	0.0	0.0	0.0	0.0	0	1.0	0.0	20.0	22	1.1	0.9				
	383	2	0.0	0.0	0.0	0.0	0	1.0	0.0	20.0	22	1.1	0.9				
	384	1	0.0	0.0	0.0	0.0	0	1.0	0.0	20.0	22	1.1	0.9				
	385	1	0.0	0.0	0.0	2.66	0	1.0	0.0	220.0	3	1.1	0.9				
	386	1	0.0	0.0	0.0	4.06	0	1.0	0.0	220.0	1	1.1	0.9				
	387	1	0.0	0.0	0.135493	12.74062	0	1.0	0.0	380.0	21	1.1	0.9				
	388	1	0.0	0.0	0.276837	2.240894	0	1.0	0.0	380.0	16	1.1	0.9				
	389	1	0.0	0.0	0.0	7.090000000000001	0	1.0	0.0	220.0	6	1.1	0.9				
	390	1	113.9	24.5	0.0	6.72	0	1.0	0.0	220.0	4	1.1	0.9				
	391	1	88.0	12.6	0.0	22.25	0	1.0	0.0	154.0	1	1.1	0.9				
	392	2	0.0	0.0	0.0	0.0	0	1.0	0.0	6.3	1	1.1	0.9				
	393	1	42.67	12.1	0.0	14.84	0	1.0	0.0	150.0	9	1.1	0.9				
	394	2	0.0	0.0	0.0	0.0	0	1.0	0.0	20.0	14	1.1	0.9				
	395	2	0.0	0.0	0.0	0.0	0	1.0	0.0	20.0	14	1.1	0.9				
	396	2	0.0	0.0	0.0	0.0	0	1.0	0.0	20.0	6	1.1	0.9				
	397	1	0.0	0.0	0.0	1.29	0	1.0	0.0	380.0	10	1.1	0.9				
	398	1	0.0	0.0	0.0	9.41	0	1.0	0.0	220.0	18	1.2	0.8				
	399	1	160.8	10.6	0.039515	21.960485	0	1.0	0.0	220.0	13	1.1	0.9				
	400	2	0.0	0.0	0.0	0.0	0	1.0	0.0	10.3	1	1.1	0.9				
	401	1	126.8	21.4	0.0	11.43	0	1.0	0.0	220.0	4	1.1	0.9				
	402	1	48.8	6.9	0.0	3.11	0	1.0	0.0	154.0	1	1.1	0.9				
	403	1	38.74	9.0	0.0	0.57	0	1.0	0.0	220.0	4	1.1	0.9				
	404	1	350.4	29.299999999999997	0.0	19.31	0	1.0	0.0	220.0	11	1.1	0.9				
	405	2	0.0	0.0	0.0	0.0	0	1.0	0.0	20.0	2	1.1	0.9				
	406	2	0.0	0.0	0.0	0.0	0	1.0	0.0	20.0	2	1.1	0.9				
	407	1	103.8	2.7	0.0	3.3300000000000005	0	1.0	0.0	220.0	4	1.1	0.9				
	408	2	0.0	0.0	0.0	0.0	0	1.0	0.0	20.0	4	1.1	0.9				
	409	1	-0.13	-1.0	0.0	0.0	0	1.0	0.0	220.0	8	1.1	0.9				
	410	1	0.0	0.0	0.0	0.66	0	1.0	0.0	110.0	22	1.1	0.9				
	411	1	0.0	0.0	0.0	6.34	0	1.0	0.0	380.0	1	1.1	0.9				
	412	1	96.7	26.8	0.0	0.0	0	1.0	0.0	150.0	2	1.1	0.9				
	413	1	0.0	0.0	0.0	19.54	0	1.0	0.0	150.0	9	1.1	0.9				
	414	1	0.0	0.0	0.0	14.87	0	1.0	0.0	220.0	23	1.1	0.9				
	415	1	0.0	0.0	0.0	0.0	0	1.0	0.0	150.0	9	1.1	0.9				
	416	1	19.02	6.0	0.0	0.25	0	1.0	0.0	110.0	21	1.1	0.9				
	417	1	102.1	25.3	0.0	1.11	0	1.0	0.0	150.0	8	1.1	0.9				
	418	1	0.0	0.0	0.0	2.44	0	1.0	0.0	220.0	3	1.1	0.9				
	419	1	0.0	0.0	0.0	0.0	0	1.0	0.0	150.0	9	1.1	0.9				
	420	1	113.3	30.2	0.039525	2.140475	0	1.0	0.0	110.0	18	1.1	0.9				
	421	1	8.31	3.0	0.0	0.9899999999999999	0	1.0	0.0	110.0	19	1.1	0.9				
	422	1	119.6	29.600000000000005	0.0	5.34	0	1.0	0.0	220.0	5	1.1	0.9				
	423	2	0.0	0.0	0.0	0.0	0	1.0	0.0	6.3	1	1.1	0.9				
	424	1	0.0	0.0	0.0	18.07	0	1.0	0.0	380.0	8	1.1	0.9				
	425	1	49.9	144.0	1.091586	80.060431	0	1.0	0.0	380.0	18	1.2	0.8				
	426	1	27.33	11.9	0.0	1.17	0	1.0	0.0	220.0	5	1.1	0.9				
	427	1	191.2	-3.4000000000000004	0.0	19.21	0	1.0	0.0	220.0	4	1.1	0.9				
	428	1	0.0	0.0	0.028663	18.318528	0	1.0	0.0	380.0	1	1.1	0.9				
	429	1	101.6	14.499999999999998	0.0	1.94	0	1.0	0.0	154.0	1	1.1	0.9				
	430	1	177.1	66.9	0.0	71.03	0	1.0	0.0	380.0	16	1.1	0.9				
	431	1	0.0	0.0	0.0	0.3	0	1.0	0.0	150.0	9	1.1	0.9				
	432	2	0.0	0.0	0.0	0.0	0	1.0	0.0	6.3	1	1.1	0.9				
	433	2	0.0	0.0	0.0	0.0	0	1.0	0.0	20.0	23	1.1	0.9				
	434	1	0.0	0.0	0.038538	-0.028903	0	1.0	0.0	220.0	6	1.1	0.9				
	435	1	53.459999999999994	18.7	0.0	1.6399999999999997	0	1.0	0.0	220.0	20	1.1	0.9				
	436	1	0.0	0.0	0.0	12.73	0	1.0	0.0	220.0	14	1.1	0.9				
	437	1	344.7	-31.1	0.0	39.129841	0	1.0	0.0	380.0	6	1.1	0.9				
	438	2	0.0	0.0	0.0	0.0	0	1.0	0.0	20.0	5	1.1	0.9				
	439	1	0.0	0.0	0.0	1.9799999999999998	0	1.0	0.0	220.0	3	1.1	0.9				
	440	1	85.1	67.0	0.0	0.18	0	1.0	0.0	150.0	9	1.1	0.9				
	441	1	0.0	0.0	0.0	0.0	0	1.0	0.0	20.0	5	1.1	0.9				
	442	2	0.0	0.0	0.0	0.0	0	1.0	0.0	20.0	5	1.1	0.9				
	443	1	0.0	0.0	0.0	0.08	0	1.0	0.0	220.0	6	1.1	0.9				
	444	1	189.3	76.7	0.0	3.2400000000000007	0	1.0	0.0	220.0	3	1.1	0.9				
	445	1	23.73	9.4	0.0	1.45	0	1.0	0.0	150.0	8	1.1	0.9				
	446	1	10.01	-21.0	0.0	8.59	0	1.0	0.0	220.0	11	1.1	0.9				
	447	1	0.0	0.0	0.0	0.0	0	1.0	0.0	20.0	5	1.1	0.9				
	448	2	0.0	0.0	0.0	0.0	0	1.0	0.0	20.0	5	1.1	0.9				
	449	1	228.10000000000002	131.8	0.9537399999999999	3.9349559999999997	0	1.0	0.0	380.0	4	1.1	0.9				
	450	1	0.0	0.0	0.0	1.05	0	1.0	0.0	150.0	9	1.1	0.9				
	451	1	-14.85	-4.95	0.0	0.37	0	1.0	0.0	110.0	18	1.1	0.9				
	452	1	20.9	3.0	0.0	2.65	0	1.0	0.0	154.0	1	1.1	0.9				
	453	1	431.70000000000005	121.6	0.0	1.14	0	1.0	0.0	220.0	21	1.1	0.9				
	454	2	0.0	0.0	0.0	0.0	0	1.0	0.0	20.0	5	1.1	0.9				
	455	1	17.62	7.7	0.0	0.59	0	1.0	0.0	110.0	22	1.1	0.9				
	456	1	0.0	0.0	0.0	109.27	0	1.0	0.0	380.0	4	1.1	0.9				
	457	1	103.0	12.0	0.0	0.63	0	1.0	0.0	220.0	5	1.1	0.9				
	458	2	0.0	0.0	0.0	0.0	0	1.0	0.0	20.0	9	1.1	0.9				
	459	1	0.0	0.0	0.0	4.76	0	1.0	0.0	220.0	5	1.1	0.9				
	460	1	0.0	0.0	0.0	25.85	0	1.0	0.0	380.0	1	1.2	0.8				
	461	1	0.0	0.0	0.0	0.0	0	1.0	0.0	150.0	9	1.2	0.8				
	462	1	0.0	0.0	0.060508000000000006	3.079577	0	1.0	0.0	220.0	3	1.1	0.9				
	463	2	0.0	0.0	0.0	0.0	0	1.0	0.0	380.0	9	1.2	0.8				
	464	1	42.05	17.2	0.0	1.31	0	1.0	0.0	150.0	8	1.1	0.9				
	465	1	-0.16	-2.91	0.0	0.43	0	1.0	0.0	110.0	8	1.1	0.9				
	466	1	0.0	0.0	0.0	0.06	0	1.0	0.0	154.0	1	1.1	0.9				
	467	1	163.1	46.3	0.0	10.6	0	1.0	0.0	220.0	5	1.1	0.9				
	468	1	0.0	0.0	0.0	2.13	0	1.0	0.0	220.0	10	1.1	0.9				
	469	1	0.0	0.0	0.0	2.81	0	1.0	0.0	220.0	3	1.1	0.9				
	470	2	0.0	0.0	0.0	0.0	0	1.0	0.0	20.0	2	1.1	0.9				
	471	1	0.0	0.0	0.049625999999999997	-1.990412	0	1.0	0.0	380.0	2	1.1	0.9				
	472	1	0.0	0.0	0.0	1.05	0	1.0	0.0	150.0	9	1.1	0.9				
	473	1	153.3	21.8	0.0	18.25	0	1.0	0.0	154.0	1	1.1	0.9				
	474	1	0.0	0.0	0.0	141.93	0	1.0	0.0	400.0	1	1.1	0.9				
	475	1	67.17	-23.9	0.0	0.93	0	1.0	0.0	220.0	3	1.1	0.9				
	476	2	0.0	0.0	0.0	0.0	0	1.0	0.0	20.0	10	1.1	0.9				
	477	2	0.0	0.0	0.0	0.0	0	1.0	0.0	20.0	14	1.1	0.9				
	478	1	0.0	0.0	0.114166	11.294861	0	1.0	0.0	380.0	3	1.1	0.9				
	479	1	382.4	86.3	0.0	22.29	0	1.0	0.0	220.0	11	1.1	0.9				
	480	2	0.0	0.0	0.0	0.0	0	1.0	0.0	20.0	6	1.1	0.9				
	481	2	0.0	0.0	0.0	0.0	0	1.0	0.0	20.0	6	1.1	0.9				
	482	2	0.0	0.0	0.0	0.0	0	1.0	0.0	20.0	6	1.1	0.9				
	483	2	0.0	0.0	0.0	0.0	0	1.0	0.0	20.0	6	1.1	0.9				
	484	1	33.5	4.8	0.0	5.48	0	1.0	0.0	154.0	1	1.1	0.9				
	485	2	0.0	0.0	0.0	0.0	0	1.0	0.0	20.0	18	1.1	0.9				
	486	1	0.01	0.0	0.0	0.0	0	1.0	0.0	220.0	8	1.1	0.9				
	487	1	0.0	0.0	0.0	12.29	0	1.0	0.0	380.0	3	1.1	0.9				
	488	1	291.5	51.300000000000004	0.24443600000000001	12.636488000000002	0	1.0	0.0	220.0	13	1.1	0.9				
	489	1	24.23	7.1	0.0	1.6399999999999997	0	1.0	0.0	110.0	21	1.1	0.9				
	490	1	108.59999999999998	2.6	0.0	31.8	0	1.0	0.0	380.0	3	1.1	0.9				
	491	1	4.0	2.4	0.0	0.03	0	1.0	0.0	150.0	9	1.1	0.9				
	492	2	0.0	0.0	0.0	0.0	0	1.0	0.0	20.0	10	1.1	0.9				
	493	1	30.03	10.9	0.0	1.45	0	1.0	0.0	110.0	19	1.1	0.9				
	494	1	0.0	0.0	0.0	45.39	0	1.0	0.0	380.0	15	1.2	0.8				
	495	1	524.5	43.0	0.0	6.849999999999999	0	1.0	0.0	220.0	5	1.1	0.9				
	496	2	0.0	0.0	0.0	0.0	0	1.0	0.0	20.0	18	1.1	0.9				
	497	1	129.9	18.5	0.0	0.38	0	1.0	0.0	154.0	1	1.1	0.9				
	498	1	0.0	0.0	0.0	1.92	0	1.0	0.0	110.0	18	1.1	0.9				
	499	1	4.4	0.0	0.0	0.51	0	1.0	0.0	110.0	18	1.1	0.9				
	500	1	9.22	1.2	0.0	0.8	0	1.0	0.0	110.0	19	1.1	0.9				
	501	1	0.0	0.0	0.05905799999999999	0.120942	0	1.0	0.0	220.0	5	1.1	0.9				
	502	1	0.0	0.0	0.0	0.14	0	1.0	0.0	220.0	6	1.1	0.9				
	503	1	0.0	0.0	0.0	0.36	0	1.0	0.0	110.0	19	1.1	0.9				
	504	1	0.0	0.0	0.0	0.8100000000000002	0	1.0	0.0	110.0	21	1.1	0.9				
	505	1	35.41	20.3	0.0	10.07	0	1.0	0.0	220.0	6	1.1	0.9				
	506	1	3.2	1.2	0.0	0.69	0	1.0	0.0	110.0	19	1.1	0.9				
	507	1	372.8	147.5	0.0	27.73	0	1.0	0.0	150.0	8	1.1	0.9				
	508	2	0.0	0.0	0.0	0.0	0	1.0	0.0	20.0	5	1.1	0.9				
	509	2	0.0	0.0	0.0	0.0	0	1.0	0.0	20.0	5	1.1	0.9				
	510	2	0.0	0.0	0.0	0.0	0	1.0	0.0	20.0	5	1.1	0.9				