%% MATPOWER Case Format : Version 2
function mpc = pglib_opf_case2737sop_k
mpc.version = '2';

%%-----  Power Flow Data  -----%%
%% system MVA base
mpc.baseMVA = 100.0;
%% bus data
%    bus_i    type    Pd    Qd    Gs    Bs    area    Vm    Va    baseKV    zone    Vmax    Vmin
mpc.bus = [
	1	1	0.0	0.0	0.0	0.0	1	1.03	0.0	220.0	1	1.11	0.95				
	2	1	0.0	0.0	0.0	0.0	1	1.03	0.0	220.0	1	1.11	0.95				
	3	1	0.0	0.0	0.0	0.0	1	1.03	0.0	220.0	1	1.11	0.95				
	4	1	0.0	0.0	0.0	0.0	1	1.03	0.0	220.0	1	1.11	0.95				
	5	1	0.0	0.0	0.0	0.0	1	1.03	0.0	220.0	1	1.11	0.95				
	6	1	0.0	0.0	0.0	0.0	1	1.03	0.0	220.0	1	1.11	0.95				
	7	1	0.0	0.0	0.0	0.0	1	1.03	0.0	220.0	1	1.11	0.95				
	8	1	0.0	0.0	0.0	-50.0	1	1.0	0.0	400.0	1	1.05	0.95				
	9	1	0.0	0.0	0.0	0.0	1	1.0	0.0	400.0	1	1.05	0.95				
	10	1	0.0	0.0	0.0	0.0	1	1.03	0.0	220.0	1	1.11	0.95				
	11	1	0.0	0.0	0.0	0.0	1	1.03	0.0	220.0	1	1.11	0.95				
	12	1	0.0	0.0	0.0	0.0	1	1.03	0.0	220.0	1	1.11	0.95				
	13	1	0.0	0.0	0.0	0.0	1	1.03	0.0	220.0	1	1.11	0.95				
	14	1	0.0	0.0	0.0	-50.0	1	1.0	0.0	400.0	1	1.05	0.95				
	15	1	0.0	0.0	0.0	0.0	1	1.0	0.0	400.0	1	1.05	0.95				
	16	1	0.0	0.0	0.0	0.0	1	1.0	0.0	400.0	1	1.05	0.95				
	17	1	0.0	0.0	0.0	0.0	1	1.03	0.0	220.0	1	1.11	0.95				
	18	1	0.0	0.0	0.0	0.0	1	1.03	0.0	220.0	1	1.11	0.95				
	19	1	0.0	0.0	0.0	0.0	1	1.03	0.0	220.0	1	1.11	0.95				
	20	1	0.0	0.0	0.0	0.0	1	1.03	0.0	220.0	1	1.11	0.95				
	21	1	0.0	0.0	0.0	0.0	1	1.03	0.0	220.0	1	1.11	0.95				
	22	1	0.0	0.0	0.0	0.0	1	1.03	0.0	220.0	1	1.11	0.95				
	23	1	0.0	0.0	0.0	0.0	1	1.03	0.0	220.0	1	1.11	0.95				
	24	1	0.0	0.0	0.0	0.0	1	1.03	0.0	220.0	1	1.11	0.95				
	25	1	0.0	0.0	0.0	-50.0	1	1.0	0.0	400.0	1	1.05	0.95				
	26	2	48.178	65.087	0.0	0.0	1	1.03	0.0	220.0	1	1.11	0.95				
	27	2	28.144999999999996	35.087	0.0	0.0	1	1.03	0.0	220.0	1	1.11	0.95				
	28	3	0.0	0.0	0.0	0.0	1	1.0	0.0	400.0	1	1.05	0.95				
	29	2	44.698	72.0	0.0	0.0	1	1.0	0.0	400.0	1	1.05	0.95				
	30	1	0.0	0.0	0.0	0.0	1	1.03	0.0	220.0	1	1.11	0.95				
	31	1	0.0	0.0	0.0	0.0	1	1.0	0.0	400.0	1	1.05	0.95				
	32	1	0.0	0.0	0.0	0.0	1	1.03	0.0	220.0	1	1.11	0.95				
	33	1	0.0	0.0	0.0	0.0	1	1.03	0.0	220.0	1	1.11	0.95				
	34	1	0.0	0.0	0.0	0.0	1	1.03	0.0	220.0	2	1.11	0.95				
	35	1	0.0	0.0	0.0	0.0	1	1.03	0.0	220.0	2	1.11	0.95				
	36	1	0.0	0.0	0.0	0.0	1	1.03	0.0	220.0	2	1.11	0.95				
	37	1	0.0	0.0	0.0	0.0	1	1.03	0.0	220.0	2	1.11	0.95				
	38	1	0.0	0.0	0.0	0.0	1	1.03	0.0	220.0	2	1.11	0.95				
	39	1	0.0	0.0	0.0	0.0	1	1.03	0.0	220.0	2	1.11	0.95				
	40	1	0.0	0.0	0.0	0.0	1	1.03	0.0	220.0	2	1.11	0.95				
	41	1	0.0	0.0	0.0	0.0	1	1.0	0.0	400.0	2	1.05	0.95				
	42	2	13.0	0.0	0.0	0.0	1	1.03	0.0	220.0	2	1.11	0.95				
	43	2	13.0	0.0	0.0	0.0	1	1.03	0.0	220.0	2	1.11	0.95				
	44	2	25.0	0.0	0.0	0.0	1	1.0	0.0	400.0	2	1.05	0.95				
	45	1	0.0	0.0	0.0	0.0	1	1.0	0.0	400.0	2	1.05	0.95				
	46	1	0.0	0.0	0.0	0.0	1	1.03	0.0	220.0	2	1.11	0.95				
	47	1	0.0	0.0	0.0	0.0	1	1.0	0.0	400.0	2	1.05	0.95				
	48	1	0.0	0.0	0.0	0.0	1	1.0	0.0	400.0	2	1.05	0.95				
	49	1	0.0	0.0	0.0	0.0	1	1.0	0.0	400.0	2	1.05	0.95				
	50	1	0.0	0.0	0.0	0.0	1	1.03	0.0	220.0	2	1.11	0.95				
	51	1	0.0	0.0	0.0	0.0	1	1.03	0.0	220.0	2	1.11	0.95				
	52	1	0.0	0.0	0.0	0.0	1	1.0	0.0	400.0	2	1.05	0.95				
	53	1	0.0	0.0	0.0	0.0	1	1.0	0.0	400.0	2	1.05	0.95				
	54	1	0.0	0.0	0.0	0.0	1	1.03	0.0	220.0	2	1.11	0.95				
	55	2	13.0	0.0	0.0	0.0	1	1.03	0.0	220.0	2	1.11	0.95				
	56	2	13.0	0.0	0.0	0.0	1	1.0	0.0	400.0	2	1.05	0.95				
	57	2	13.0	0.0	0.0	0.0	1	1.0	0.0	400.0	2	1.05	0.95				
	58	2	67.882	25.273	0.0	0.0	1	1.03	0.0	220.0	2	1.11	0.95				
	59	1	0.0	0.0	0.0	0.0	1	1.03	0.0	220.0	2	1.11	0.95				
	60	1	0.0	0.0	0.0	0.0	1	1.03	0.0	220.0	2	1.11	0.95				
	61	1	0.0	0.0	0.0	0.0	1	1.03	0.0	220.0	2	1.11	0.95				
	62	1	0.0	0.0	0.0	0.0	1	1.03	0.0	220.0	2	1.11	0.95				
	63	1	0.0	0.0	0.0	0.0	1	1.0	0.0	400.0	2	1.05	0.95				
	64	1	0.0	0.0	0.0	0.0	1	1.0	0.0	400.0	2	1.05	0.95				
	65	1	0.0	224.802	0.0	0.0	1	0.975	0.0	750.0	2	1.05	0.9				
	66	1	0.0	0.0	0.0	0.0	1	1.03	0.0	220.0	2	1.11	0.95				
	67	1	0.0	0.0	0.0	0.0	1	1.03	0.0	220.0	2	1.11	0.95				
	68	1	0.0	0.0	0.0	0.0	1	1.03	0.0	220.0	2	1.11	0.95				
	69	1	0.0	0.0	0.0	0.0	1	1.03	0.0	220.0	3	1.11	0.95				
	70	1	0.0	0.0	0.0	0.0	1	1.03	0.0	220.0	3	1.11	0.95				
	71	1	0.0	0.0	0.0	0.0	1	1.03	0.0	220.0	3	1.11	0.95				
	72	1	0.0	0.0	0.0	0.0	1	1.03	0.0	220.0	3	1.11	0.95				
	73	1	0.0	0.0	0.0	0.0	1	1.03	0.0	220.0	3	1.11	0.95				
	74	1	0.0	0.0	0.0	0.0	1	1.03	0.0	220.0	3	1.11	0.95				
	75	1	0.0	0.0	0.0	0.0	1	1.03	0.0	220.0	3	1.11	0.95				
	76	1	0.0	0.0	0.0	0.0	1	1.03	0.0	220.0	3	1.11	0.95				
	77	1	0.0	0.0	0.0	0.0	1	1.03	0.0	220.0	3	1.11	0.95				
	78	2	27.0	70.0	0.0	0.0	1	1.03	0.0	220.0	3	1.11	0.95				
	79	2	9.0	21.0	0.0	0.0	1	1.03	0.0	220.0	3	1.11	0.95				
	80	1	4.602	0.91	0.0	0.0	1	1.03	0.0	220.0	3	1.11	0.95				
	81	1	0.0	0.0	0.0	0.0	1	1.03	0.0	220.0	3	1.11	0.95				
	82	2	18.0	56.99999999999999	0.0	0.0	1	1.0	0.0	400.0	3	1.05	0.95				
	83	1	0.0	0.0	0.0	0.0	1	1.03	0.0	220.0	3	1.11	0.95				
	84	1	0.0	0.0	0.0	0.0	1	1.03	0.0	220.0	3	1.11	0.95				
	85	1	0.0	0.0	0.0	0.0	1	1.03	0.0	220.0	3	1.11	0.95				
	86	1	32.969	-8.4	0.0	0.0	1	1.03	0.0	220.0	3	1.11	0.95				
	87	1	0.0	0.0	0.0	0.0	1	1.03	0.0	220.0	3	1.11	0.95				
	88	1	0.0	0.0	0.0	0.0	1	1.03	0.0	220.0	3	1.11	0.95				
	89	1	0.0	0.0	0.0	0.0	1	1.03	0.0	220.0	3	1.11	0.95				
	90	1	0.0	0.0	0.0	0.0	1	1.03	0.0	220.0	3	1.11	0.95				
	91	1	0.0	0.0	0.0	0.0	1	1.03	0.0	220.0	3	1.11	0.95				
	92	1	0.0	0.0	0.0	0.0	1	1.0	0.0	400.0	3	1.05	0.95				
	93	1	0.0	0.0	0.0	0.0	1	1.0	0.0	400.0	3	1.05	0.95				
	94	1	0.0	0.0	0.0	0.0	1	1.03	0.0	220.0	3	1.11	0.95				
	95	1	0.0	0.0	0.0	0.0	1	1.03	0.0	220.0	3	1.11	0.95				
	96	1	0.0	0.0	0.0	0.0	1	1.03	0.0	220.0	3	1.11	0.95				
	97	1	0.0	0.0	0.0	0.0	1	1.03	0.0	220.0	3	1.11	0.95				
	98	2	9.938	2.19	0.0	0.0	1	1.03	0.0	220.0	3	1.11	0.95				
	99	1	16.652	3.293	0.0	0.0	1	1.03	0.0	220.0	3	1.11	0.95				
	100	1	0.0	0.0	0.0	0.0	1	1.03	0.0	220.0	3	1.11	0.95				
	101	1	0.0	0.0	0.0	0.0	1	1.03	0.0	220.0	3	1.11	0.95				
	102	1	0.0	0.0	0.0	0.0	1	1.03	0.0	220.0	3	1.11	0.95				
	103	1	0.0	0.0	0.0	0.0	1	1.03	0.0	220.0	3	1.11	0.95				
	104	2	14.000000000000002	40.0	0.0	0.0	1	1.03	0.0	220.0	3	1.11	0.95				
	105	1	0.0	0.0	0.0	0.0	1	1.03	0.0	220.0	3	1.11	0.95				
	106	2	7.000000000000001	18.0	0.0	0.0	1	1.03	0.0	220.0	3	1.11	0.95				
	107	1	0.0	0.0	0.0	0.0	1	1.03	0.0	220.0	3	1.11	0.95				
	108	1	27.63	5.872	0.0	0.0	1	1.03	0.0	220.0	3	1.11	0.95				
	109	1	17.522	3.337	0.0	0.0	1	1.03	0.0	220.0	3	1.11	0.95				
	110	1	0.0	0.0	0.0	0.0	1	1.03	0.0	220.0	3	1.11	0.95				
	111	1	0.0	0.0	0.0	0.0	1	1.03	0.0	220.0	3	1.11	0.95				
	112	1	0.0	0.0	0.0	0.0	1	1.03	0.0	220.0	3	1.11	0.95				
	113	1	0.0	0.0	0.0	0.0	1	1.03	0.0	220.0	3	1.11	0.95				
	114	1	0.0	0.0	0.0	0.0	1	1.03	0.0	220.0	3	1.11	0.95				
	115	1	0.0	0.0	0.0	0.0	1	1.0	0.0	400.0	3	1.05	0.95				
	116	1	0.0	0.0	0.0	0.0	1	1.03	0.0	220.0	3	1.11	0.95				
	117	2	8.0	15.0	0.0	0.0	1	1.03	0.0	220.0	3	1.11	0.95				
	118	1	0.0	0.0	0.0	0.0	1	1.03	0.0	220.0	3	1.11	0.95				
	119	1	0.0	0.0	0.0	0.0	1	1.03	0.0	220.0	3	1.11	0.95				
	120	1	0.0	0.0	0.0	0.0	1	1.0	0.0	400.0	3	1.05	0.95				
	121	1	0.0	0.0	0.0	0.0	1	1.0	0.0	400.0	3	1.05	0.95				
	122	1	0.0	0.0	0.0	0.0	1	1.0	0.0	400.0	3	1.05	0.95				
	123	1	0.0	0.0	0.0	0.0	1	1.0	0.0	400.0	3	1.05	0.95				
	124	1	0.0	0.0	0.0	0.0	1	1.03	0.0	220.0	3	1.11	0.95				
	125	1	2.929	0.8670000000000001	0.0	0.0	1	1.03	0.0	220.0	3	1.11	0.95				
	126	2	19.898	27.706999999999997	0.0	0.0	1	1.03	0.0	220.0	3	1.11	0.95				
	127	2	12.2	25.8	0.0	0.0	1	1.0	0.0	400.0	3	1.05	0.95				
	128	1	0.0	0.0	0.0	0.0	1	1.0	0.0	400.0	3	1.05	0.95				
	129	1	0.0	0.0	0.0	0.0	1	1.03	0.0	220.0	3	1.11	0.95				
	130	1	0.0	0.0	0.0	0.0	1	1.03	0.0	220.0	3	1.11	0.95				
	131	1	0.0	0.0	0.0	0.0	1	1.03	0.0	220.0	3	1.11	0.95				
	132	2	137.0	9.0	0.0	0.0	1	1.03	0.0	220.0	3	1.11	0.95				
	133	2	137.0	6.0	0.0	0.0	1	1.03	0.0	220.0	3	1.11	0.95				
	134	1	0.515	1.973	0.0	0.0	1	1.03	0.0	220.0	4	1.11	0.95				
	135	2	15.242	14.276999999999997	0.0	0.0	1	1.03	0.0	220.0	4	1.11	0.95				
	136	1	0.0	0.0	0.0	0.0	1	1.03	0.0	220.0	4	1.11	0.95				
	137	1	0.0	0.0	0.0	0.0	1	1.03	0.0	220.0	4	1.11	0.95				
	138	1	0.0	0.0	0.0	0.0	1	1.0	0.0	400.0	4	1.05	0.95				
	139	1	0.0	0.0	0.0	0.0	1	1.0	0.0	400.0	4	1.05	0.95				
	140	1	0.0	0.0	0.0	0.0	1	1.03	0.0	220.0	4	1.11	0.95				
	141	1	0.0	0.0	0.0	0.0	1	1.03	0.0	220.0	4	1.11	0.95				
	142	1	0.0	0.0	0.0	0.0	1	1.03	0.0	220.0	4	1.11	0.95				
	143	1	0.0	0.0	0.0	0.0	1	1.03	0.0	220.0	4	1.11	0.95				
	144	1	0.0	0.0	0.0	0.0	1	1.03	0.0	220.0	4	1.11	0.95				
	145	1	0.0	0.0	0.0	0.0	1	1.03	0.0	220.0	4	1.11	0.95				
	146	1	7.636	13.257	0.0	0.0	1	1.03	0.0	220.0	4	1.11	0.95				
	147	1	0.0	0.0	0.0	0.0	1	1.03	0.0	220.0	4	1.11	0.95				
	148	2	10.87	14.866999999999999	0.0	0.0	1	1.03	0.0	220.0	4	1.11	0.95				
	149	1	0.0	0.0	0.0	0.0	1	1.03	0.0	220.0	4	1.11	0.95				
	150	2	10.989	15.0	0.0	0.0	1	1.0	0.0	400.0	4	1.05	0.95				
	151	2	20.672	21.479	0.0	0.0	1	1.0	0.0	400.0	4	1.05	0.95				
	152	1	0.0	0.0	0.0	0.0	1	1.03	0.0	220.0	4	1.11	0.95				
	153	1	0.0	0.0	0.0	0.0	1	1.03	0.0	220.0	4	1.11	0.95				
	154	1	0.0	0.0	0.0	0.0	1	1.03	0.0	220.0	4	1.11	0.95				
	155	2	0.0	0.0	0.0	0.0	1	1.03	0.0	220.0	4	1.11	0.95				
	156	2	13.87	33.0	0.0	0.0	1	1.03	0.0	220.0	4	1.11	0.95				
	157	1	0.0	0.0	0.0	0.0	1	1.0	0.0	400.0	4	1.05	0.95				
	158	2	9.989	25.0	0.0	0.0	1	1.0	0.0	400.0	4	1.05	0.95				
	159	1	0.0	0.0	0.0	0.0	1	1.03	0.0	220.0	4	1.11	0.95				
	160	1	0.0	0.0	0.0	0.0	1	1.03	0.0	220.0	4	1.11	0.95				
	161	1	0.0	0.0	0.0	0.0	1	1.0	0.0	400.0	4	1.05	0.95				
	162	1	0.0	0.0	0.0	0.0	1	1.0	0.0	400.0	4	1.05	0.95				
	163	1	0.0	0.0	0.0	0.0	1	1.0	0.0	400.0	4	1.05	0.95				
	164	2	11.664	11.0	0.0	0.0	1	1.03	0.0	220.0	4	1.11	0.95				
	165	2	11.564	10.667	0.0	0.0	1	1.03	0.0	220.0	4	1.11	0.95				
	166	1	0.0	0.0	0.0	0.0	1	1.03	0.0	220.0	4	1.11	0.95				
	167	1	0.0	0.0	0.0	0.0	1	1.03	0.0	220.0	4	1.11	0.95				
	168	1	0.0	0.0	0.0	0.0	1	1.03	0.0	220.0	4	1.11	0.95				
	169	1	0.0	0.0	0.0	0.0	1	1.03	0.0	220.0	4	1.11	0.95				
	170	1	0.0	0.0	0.0	0.0	1	1.03	0.0	220.0	4	1.11	0.95				
	171	1	0.0	0.0	0.0	0.0	1	1.0	0.0	400.0	4	1.05	0.95				
	172	1	0.0	0.0	0.0	0.0	1	1.0	0.0	400.0	4	1.05	0.95				
	173	1	0.0	0.0	0.0	0.0	1	1.03	0.0	220.0	4	1.11	0.95				
	174	1	0.0	0.0	0.0	0.0	1	1.03	0.0	220.0	4	1.11	0.95				
	175	1	0.0	0.0	0.0	0.0	1	1.03	0.0	220.0	4	1.11	0.95				
	176	1	0.0	0.0	0.0	0.0	1	1.03	0.0	220.0	4	1.11	0.95				
	177	1	0.0	0.0	0.0	0.0	1	1.03	0.0	220.0	4	1.11	0.95				
	178	1	0.0	0.0	0.0	0.0	1	1.03	0.0	220.0	4	1.11	0.95				
	179	1	0.0	0.0	0.0	0.0	1	1.03	0.0	220.0	4	1.11	0.95				
	180	2	3.1300000000000003	1.5	0.0	0.0	1	1.03	0.0	220.0	4	1.11	0.95				
	181	1	0.0	0.0	0.0	0.0	1	1.03	0.0	220.0	4	1.11	0.95				
	182	1	0.0	0.0	0.0	0.0	1	1.03	0.0	220.0	5	1.11	0.95				
	183	1	0.0	0.0	0.0	0.0	1	1.03	0.0	220.0	5	1.11	0.95				
	184	1	0.0	0.0	0.0	0.0	1	1.0	0.0	400.0	5	1.05	0.95				
	185	1	0.0	0.0	0.0	0.0	1	1.0	0.0	400.0	5	1.05	0.95				
	186	1	0.0	0.0	0.0	0.0	1	1.0	0.0	400.0	5	1.05	0.95				
	187	1	0.0	0.0	0.0	0.0	1	1.0	0.0	400.0	5	1.05	0.95				
	188	1	0.0	0.0	0.0	0.0	1	1.03	0.0	220.0	5	1.11	0.95				
	189	1	0.0	0.0	0.0	0.0	1	1.03	0.0	220.0	5	1.11	0.95				
	190	1	0.0	0.0	0.0	0.0	1	1.03	0.0	220.0	5	1.11	0.95				
	191	1	0.0	0.0	0.0	0.0	1	1.03	0.0	220.0	5	1.11	0.95				
	192	1	0.0	0.0	0.0	0.0	1	1.0	0.0	400.0	5	1.05	0.95				
	193	1	0.0	0.0	0.0	0.0	1	1.03	0.0	220.0	5	1.11	0.95				
	194	1	0.0	0.0	0.0	0.0	1	1.03	0.0	220.0	5	1.11	0.95				
	195	1	0.0	0.0	0.0	0.0	1	1.0	0.0	400.0	5	1.05	0.95				
	196	1	0.0	0.0	0.0	0.0	1	1.0	0.0	400.0	5	1.05	0.95				
	197	1	0.0	0.0	0.0	0.0	1	1.03	0.0	220.0	5	1.11	0.95				
	198	1	0.0	0.0	0.0	0.0	1	1.03	0.0	220.0	5	1.11	0.95				
	199	1	0.0	0.0	0.0	-117.0	1	1.0	0.0	400.0	5	1.05	0.95				
	200	1	0.0	0.0	0.0	0.0	1	1.0	0.0	400.0	5	1.05	0.95				
	201	1	0.0	0.0	0.0	0.0	1	1.03	0.0	220.0	5	1.11	0.95				
	202	1	0.0	0.0	0.0	0.0	1	1.03	0.0	220.0	5	1.11	0.95				
	203	1	0.0	0.0	0.0	0.0	1	1.03	0.0	220.0	5	1.11	0.95				
	204	1	0.0	0.0	0.0	0.0	1	1.03	0.0	220.0	5	1.11	0.95				
	205	2	400.0	60.0	0.0	0.0	1	1.0	0.0	400.0	5	1.05	0.95				
	206	1	0.0	0.0	0.0	0.0	1	1.0	0.0	400.0	5	1.05	0.95				
	207	1	0.0	0.0	0.0	0.0	1	1.03	0.0	220.0	5	1.11	0.95				
	208	1	0.0	0.0	0.0	0.0	1	1.03	0.0	220.0	5	1.11	0.95				
	209	1	8.114	2.0	0.0	0.0	1	1.035	0.0	110.0	1	1.12	0.95				
	210	1	2.705	0.5	0.0	0.0	1	1.035	0.0	110.0	1	1.12	0.95				
	211	1	2.705	2.0	0.0	0.0	1	1.035	0.0	110.0	1	1.12	0.95				
	212	1	4.688	4.6	0.0	0.0	1	1.035	0.0	110.0	1	1.12	0.95				
	213	1	1.6230000000000002	0.4	0.0	0.0	1	1.035	0.0	110.0	1	1.12	0.95				
	214	1	1.172	0.3	0.0	0.0	1	1.035	0.0	110.0	1	1.12	0.95				
	215	2	6.0	8.8	0.0	0.0	1	1.035	0.0	110.0	1	1.12	0.95				
	216	1	4.959	0.5	0.0	0.0	1	1.035	0.0	110.0	1	1.12	0.95				
	217	1	4.057	1.0	0.0	0.0	1	1.035	0.0	110.0	1	1.12	0.95				
	218	1	6.762	1.5	0.0	0.0	1	1.035	0.0	110.0	1	1.12	0.95				
	219	1	5.139	2.8	0.0	0.0	1	1.035	0.0	110.0	1	1.12	0.95				
	220	1	5.41	1.5	0.0	0.0	1	1.035	0.0	110.0	1	1.12	0.95				
	221	2	0.0	0.0	0.0	0.0	1	1.035	0.0	110.0	1	1.12	0.95				
	222	2	4.237	1.7000000000000002	0.0	0.0	1	1.035	0.0	110.0	1	1.12	0.95				
	223	1	6.311	1.4	0.0	0.0	1	1.035	0.0	110.0	1	1.12	0.95				
	224	1	0.721	0.1	0.0	0.0	1	1.035	0.0	110.0	1	1.12	0.95				
	225	1	2.074	0.4	0.0	0.0	1	1.035	0.0	110.0	1	1.12	0.95				
	226	1	1.8030000000000002	0.0	0.0	0.0	1	1.035	0.0	110.0	1	1.12	0.95				
	227	1	7.664	1.5	0.0	0.0	1	1.035	0.0	110.0	1	1.12	0.95				
	228	1	2.524	1.0	0.0	0.0	1	1.035	0.0	110.0	1	1.12	0.95				
	229	1	3.2460000000000004	1.0	0.0	0.0	1	1.035	0.0	110.0	1	1.12	0.95				
	230	1	1.533	0.78	0.0	0.0	1	1.035	0.0	110.0	1	1.12	0.95				
	231	1	1.533	0.78	0.0	0.0	1	1.035	0.0	110.0	1	1.12	0.95				
	232	1	3.6060000000000003	1.0	0.0	0.0	1	1.035	0.0	110.0	1	1.12	0.95				
	233	1	3.2460000000000004	1.0	0.0	0.0	1	1.035	0.0	110.0	1	1.12	0.95				
	234	1	8.114	0.5	0.0	0.0	1	1.035	0.0	110.0	1	1.12	0.95				
	235	1	22.54	23.0	0.0	0.0	1	1.035	0.0	110.0	1	1.12	0.95				
	236	1	2.975	0.5	0.0	0.0	1	1.035	0.0	110.0	1	1.12	0.95				
	237	1	4.057	1.78	0.0	0.0	1	1.035	0.0	110.0	1	1.12	0.95				
	238	1	2.975	0.6	0.0	0.0	1	1.035	0.0	110.0	1	1.12	0.95				
	239	1	2.254	1.0	0.0	0.0	1	1.035	0.0	110.0	1	1.12	0.95				
	240	2	0.0	0.0	0.0	0.0	1	1.035	0.0	110.0	1	1.12	0.95				
	241	1	4.959	0.8	0.0	0.0	1	1.035	0.0	110.0	1	1.12	0.95				
	242	1	2.074	0.83	0.0	0.0	1	1.035	0.0	110.0	1	1.12	0.95				
	243	1	3.3360000000000003	0.4	0.0	0.0	1	1.035	0.0	110.0	1	1.12	0.95				
	244	1	3.3360000000000003	0.4	0.0	0.0	1	1.035	0.0	110.0	1	1.12	0.95				
	245	1	1.6230000000000002	1.5	0.0	0.0	1	1.035	0.0	110.0	1	1.12	0.95				
	246	1	0.0	0.0	0.0	0.0	1	1.035	0.0	110.0	1	1.12	0.95				
	247	2	0.0	5.0	0.0	0.0	1	1.035	0.0	22.0	1	1.12	0.95				
	248	1	3.6060000000000003	1.0	0.0	0.0	1	1.035	0.0	110.0	1	1.12	0.95				
	249	1	1.352	0.0	0.0	0.0	1	1.035	0.0	110.0	1	1.12	0.95				
	250	1	1.352	0.0	0.0	0.0	1	1.035	0.0	110.0	1	1.12	0.95				
	251	1	1.352	0.0	0.0	0.0	1	1.035	0.0	110.0	1	1.12	0.95				
	252	1	1.984	0.3	0.0	0.0	1	1.035	0.0	110.0	1	1.12	0.95				
	253	1	9.016	5.0	0.0	0.0	1	1.035	0.0	110.0	1	1.12	0.95				
	254	1	8.565	4.0	0.0	0.0	1	1.035	0.0	110.0	1	1.12	0.95				
	255	1	5.41	1.0	0.0	0.0	1	1.035	0.0	110.0	1	1.12	0.95				
	256	1	7.213	1.0	0.0	0.0	1	1.035	0.0	110.0	1	1.12	0.95				
	257	1	2.254	0.0	0.0	0.0	1	1.035	0.0	110.0	1	1.12	0.95				
	258	1	2.029	0.5	0.0	0.0	1	1.035	0.0	110.0	1	1.12	0.95				
	259	1	2.029	0.5	0.0	0.0	1	1.035	0.0	110.0	1	1.12	0.95				
	260	1	4.418	1.78	0.0	0.0	1	1.035	0.0	110.0	1	1.12	0.95				
	261	1	2.254	0.0	0.0	0.0	1	1.035	0.0	110.0	1	1.12	0.95				
	262	1	4.869	2.1	0.0	0.0	1	1.035	0.0	110.0	1	1.12	0.95				
	263	1	0.0	0.0	0.0	0.0	1	1.035	0.0	110.0	1	1.12	0.95				
	264	1	0.721	0.8	0.0	0.0	1	1.035	0.0	110.0	1	1.12	0.95				
	265	1	19.835	20.0	0.0	0.0	1	1.035	0.0	110.0	1	1.12	0.95				
	266	1	31.555	33.0	0.0	0.0	1	1.035	0.0	110.0	1	1.12	0.95				
	267	1	24.344	0.9000000000000001	0.0	0.0	1	1.035	0.0	110.0	1	1.12	0.95				
	268	1	0.902	0.0	0.0	0.0	1	1.035	0.0	110.0	1	1.12	0.95				
	269	1	3.9670000000000005	0.1	0.0	0.0	1	1.035	0.0	110.0	1	1.12	0.95				
	270	1	3.3360000000000003	1.4	0.0	0.0	1	1.035	0.0	110.0	1	1.12	0.95				
	271	1	4.508	1.0	0.0	0.0	1	1.035	0.0	110.0	1	1.12	0.95				
	272	1	4.058	0.5	0.0	0.0	1	1.035	0.0	110.0	1	1.12	0.95				
	273	1	5.229	1.45	0.0	0.0	1	1.035	0.0	110.0	1	1.12	0.95				
	274	1	0.36	0.1	0.0	0.0	1	1.035	0.0	110.0	1	1.12	0.95				
	275	1	0.09	0.03	0.0	0.0	1	1.035	0.0	110.0	1	1.12	0.95				
	276	1	0.0	0.0	0.0	0.0	1	1.035	0.0	110.0	1	1.12	0.95				
	277	1	6.311	3.5900000000000003	0.0	0.0	1	1.035	0.0	110.0	1	1.12	0.95				
	278	1	0.0	0.0	0.0	0.0	1	1.035	0.0	110.0	1	1.12	0.95				
	279	1	3.6060000000000003	1.4	0.0	0.0	1	1.035	0.0	110.0	1	1.12	0.95				
	280	1	1.352	0.5	0.0	0.0	1	1.035	0.0	110.0	1	1.12	0.95				
	281	1	2.705	0.0	0.0	0.0	1	1.035	0.0	110.0	1	1.12	0.95				
	282	1	2.705	1.0	0.0	0.0	1	1.035	0.0	110.0	1	1.12	0.95				
	283	1	3.6060000000000003	1.0	0.0	0.0	1	1.035	0.0	110.0	1	1.12	0.95				
	284	1	16.229	16.0	0.0	0.0	1	1.035	0.0	110.0	1	1.12	0.95				
	285	1	40.572	42.0	0.0	0.0	1	1.035	0.0	110.0	1	1.12	0.95				
	286	1	0.992	0.3	0.0	0.0	1	1.035	0.0	110.0	1	1.12	0.95				
	287	1	0.0	0.0	0.0	0.0	1	1.035	0.0	110.0	1	1.12	0.95				
	288	1	4.779	2.1	0.0	0.0	1	1.035	0.0	110.0	1	1.12	0.95				
	289	1	4.959	1.2	0.0	0.0	1	1.035	0.0	110.0	1	1.12	0.95				
	290	1	4.508	1.5	0.0	0.0	1	1.035	0.0	110.0	1	1.12	0.95				
	291	1	2.705	1.0	0.0	0.0	1	1.035	0.0	110.0	1	1.12	0.95				
	292	1	2.524	2.0	0.0	0.0	1	1.035	0.0	110.0	1	1.12	0.95				
	293	1	1.443	0.4	0.0	0.0	1	1.035	0.0	110.0	1	1.12	0.95				
	294	1	9.466	4.2	0.0	0.0	1	1.035	0.0	110.0	1	1.12	0.95				
	295	1	7.213	2.5	0.0	0.0	1	1.035	0.0	110.0	1	1.12	0.95				
	296	1	2.795	1.13	0.0	0.0	1	1.035	0.0	110.0	1	1.12	0.95				
	297	1	1.406	1.1	0.0	0.0	1	1.035	0.0	110.0	1	1.12	0.95				
	298	1	2.164	0.4	0.0	0.0	1	1.035	0.0	110.0	1	1.12	0.95				
	299	1	3.787	0.5	0.0	0.0	1	1.035	0.0	110.0	1	1.12	0.95				
	300	1	3.6060000000000003	0.7	0.0	0.0	1	1.035	0.0	110.0	1	1.12	0.95				
	301	1	2.885	1.27	0.0	0.0	1	1.035	0.0	110.0	1	1.12	0.95				
	302	1	4.598	1.8500000000000003	0.0	0.0	1	1.035	0.0	110.0	1	1.12	0.95				
	303	1	5.409	1.0	0.0	0.0	1	1.035	0.0	110.0	1	1.12	0.95				
	304	1	0.0	0.0	0.0	0.0	1	1.035	0.0	110.0	1	1.12	0.95				
	305	1	2.705	1.0	0.0	0.0	1	1.035	0.0	110.0	1	1.12	0.95				
	306	1	5.86	2.57	0.0	0.0	1	1.035	0.0	110.0	1	1.12	0.95				
	307	1	3.877	1.56	0.0	0.0	1	1.035	0.0	110.0	1	1.12	0.95				
	308	1	5.229	2.11	0.0	0.0	1	1.035	0.0	110.0	1	1.12	0.95				
	309	1	6.401	2.58	0.0	0.0	1	1.035	0.0	110.0	1	1.12	0.95				
	310	2	8.934	4.46	0.0	0.0	1	1.035	0.0	110.0	1	1.12	0.95				
	311	1	0.847	0.56	0.0	0.0	1	1.035	0.0	110.0	1	1.12	0.95				
	312	2	7.57	3.66	0.0	0.0	1	1.035	0.0	110.0	1	1.12	0.95				
	313	1	0.0	0.0	0.0	0.0	1	1.035	0.0	110.0	1	1.12	0.95				
	314	2	4.173	2.02	0.0	0.0	1	1.035	0.0	110.0	1	1.12	0.95				
	315	1	9.025	4.72	0.0	0.0	1	1.035	0.0	110.0	1	1.12	0.95				
	316	1	4.418	0.6	0.0	0.0	1	1.035	0.0	110.0	1	1.12	0.95				
	317	1	1.352	0.5	0.0	0.0	1	1.035	0.0	110.0	1	1.12	0.95				
	318	1	2.254	1.0	0.0	0.0	1	1.035	0.0	110.0	1	1.12	0.95				
	319	1	2.254	1.25	0.0	0.0	1	1.035	0.0	110.0	1	1.12	0.95				
	320	1	3.6060000000000003	1.25	0.0	0.0	1	1.035	0.0	110.0	1	1.12	0.95				
	321	1	4.057	2.0	0.0	0.0	1	1.035	0.0	110.0	1	1.12	0.95				
	322	1	4.057	1.63	0.0	0.0	1	1.035	0.0	110.0	1	1.12	0.95				
	323	2	7.213	2.9	0.0	0.0	1	1.035	0.0	110.0	1	1.12	0.95				
	324	1	4.959	2.5	0.0	0.0	1	1.035	0.0	110.0	1	1.12	0.95				
	325	1	6.582000000000001	2.89	0.0	0.0	1	1.035	0.0	110.0	1	1.12	0.95				
	326	1	2.344	0.9399999999999998	0.0	0.0	1	1.035	0.0	110.0	1	1.12	0.95				
	327	1	2.344	0.9399999999999998	0.0	0.0	1	1.035	0.0	110.0	1	1.12	0.95				
	328	1	5.409	2.5	0.0	0.0	1	1.035	0.0	110.0	1	1.12	0.95				
	329	1	7.663	2.0	0.0	0.0	1	1.035	0.0	110.0	1	1.12	0.95				
	330	1	5.139	2.07	0.0	0.0	1	1.035	0.0	110.0	1	1.12	0.95				
	331	1	3.6060000000000003	1.4	0.0	0.0	1	1.035	0.0	110.0	1	1.12	0.95				
	332	1	2.254	0.8	0.0	0.0	1	1.035	0.0	110.0	1	1.12	0.95				
	333	1	11.451	4.61	0.0	0.0	1	1.035	0.0	110.0	1	1.12	0.95				
	334	1	6.312000000000001	1.0	0.0	0.0	1	1.035	0.0	110.0	1	1.12	0.95				
	335	1	1.8030000000000002	0.5	0.0	0.0	1	1.035	0.0	110.0	1	1.12	0.95				
	336	1	3.6060000000000003	0.6	0.0	0.0	1	1.035	0.0	110.0	1	1.12	0.95				
	337	1	2.164	0.2	0.0	0.0	1	1.035	0.0	110.0	1	1.12	0.95				
	338	1	3.6060000000000003	1.45	0.0	0.0	1	1.035	0.0	110.0	1	1.12	0.95				
	339	1	5.41	2.4	0.0	0.0	1	1.035	0.0	110.0	1	1.12	0.95				
	340	1	4.959	1.6500000000000001	0.0	0.0	1	1.035	0.0	110.0	1	1.12	0.95				
	341	1	4.959	1.6500000000000001	0.0	0.0	1	1.035	0.0	110.0	1	1.12	0.95				
	342	1	1.8030000000000002	0.5	0.0	0.0	1	1.035	0.0	110.0	1	1.12	0.95				
	343	1	0.0	0.0	0.0	0.0	1	1.035	0.0	110.0	1	1.12	0.95				
	344	1	0.0	0.0	0.0	0.0	1	1.035	0.0	110.0	1	1.12	0.95				
	345	1	7.212000000000001	3.5000000000000004	0.0	0.0	1	1.035	0.0	110.0	1	1.12	0.95				
	346	1	6.762	2.5	0.0	0.0	1	1.035	0.0	110.0	1	1.12	0.95				
	347	1	0.0	0.0	0.0	0.0	1	1.035	0.0	110.0	1	1.12	0.95				
	348	1	2.704	0.5	0.0	0.0	1	1.035	0.0	110.0	1	1.12	0.95				
	349	1	3.6060000000000003	1.0	0.0	0.0	1	1.035	0.0	110.0	1	1.12	0.95				
	350	1	3.787	0.5	0.0	0.0	1	1.035	0.0	110.0	1	1.12	0.95				
	351	1	5.5	2.21	0.0	0.0	1	1.035	0.0	110.0	1	1.12	0.95				
	352	1	4.328	1.2	0.0	0.0	1	1.035	0.0	110.0	1	1.12	0.95				
	353	1	0.0	0.0	0.0	0.0	1	1.035	0.0	110.0	1	1.12	0.95				
	354	1	2.705	1.0	0.0	0.0	1	1.035	0.0	110.0	1	1.12	0.95				
	355	1	0.0	0.0	0.0	0.0	1	1.035	0.0	110.0	1	1.12	0.95				
	356	1	0.0	0.0	0.0	0.0	1	1.035	0.0	110.0	1	1.12	0.95				
	357	1	0.902	0.3	0.0	0.0	1	1.035	0.0	110.0	1	1.12	0.95				
	358	1	0.0	0.0	0.0	0.0	1	1.035	0.0	110.0	1	1.12	0.95				
	359	1	3.1560000000000006	1.2	0.0	0.0	1	1.035	0.0	110.0	1	1.12	0.95				
	360	1	4.959	1.8000000000000003	0.0	0.0	1	1.035	0.0	110.0	1	1.12	0.95				
	361	1	4.327	0.8	0.0	0.0	1	1.035	0.0	110.0	1	1.12	0.95				
	362	1	0.0	0.0	0.0	0.0	1	1.035	0.0	110.0	1	1.12	0.95				
	363	1	0.0	0.0	0.0	0.0	1	1.035	0.0	110.0	1	1.12	0.95				
	364	1	3.6070000000000007	0.6	0.0	0.0	1	1.035	0.0	110.0	1	1.12	0.95				
	365	1	2.705	0.8	0.0	0.0	1	1.035	0.0	110.0	1	1.12	0.95				
	366	2	40.572	10.0	0.0	0.0	1	1.035	0.0	110.0	1	1.12	0.95				
	367	2	40.572	10.0	0.0	0.0	1	1.035	0.0	110.0	1	1.12	0.95				
	368	2	40.572	10.0	0.0	0.0	1	1.035	0.0	110.0	1	1.12	0.95				
	369	2	40.572	10.0	0.0	0.0	1	1.035	0.0	110.0	1	1.12	0.95				
	370	1	0.0	0.0	0.0	0.0	1	1.035	0.0	110.0	1	1.12	0.95				
	371	1	5.229	0.8	0.0	0.0	1	1.035	0.0	110.0	1	1.12	0.95				
	372	1	10.819	0.5	0.0	0.0	1	1.035	0.0	110.0	1	1.12	0.95				
	373	1	3.1560000000000006	1.0	0.0	0.0	1	1.035	0.0	110.0	1	1.12	0.95				
	374	1	0.0	0.0	0.0	0.0	1	1.035	0.0	110.0	1	1.12	0.95				
	375	1	9.016	2.5	0.0	0.0	1	1.035	0.0	110.0	1	1.12	0.95				
	376	1	1.262	0.4	0.0	0.0	1	1.035	0.0	110.0	1	1.12	0.95				
	377	1	1.533	0.6	0.0	0.0	1	1.035	0.0	110.0	1	1.12	0.95				
	378	1	4.508	1.0	0.0	0.0	1	1.035	0.0	110.0	1	1.12	0.95				
	379	1	4.057	0.5	0.0	0.0	1	1.035	0.0	110.0	1	1.12	0.95				
	380	1	3.6060000000000003	1.1	0.0	0.0	1	1.035	0.0	110.0	1	1.12	0.95				
	381	1	3.787	0.8	0.0	0.0	1	1.035	0.0	110.0	1	1.12	0.95				
	382	1	1.8030000000000002	1.0	0.0	0.0	1	1.035	0.0	110.0	1	1.12	0.95				
	383	1	8.295	2.0	0.0	0.0	1	1.035	0.0	110.0	1	1.12	0.95				
	384	1	5.41	1.5	0.0	0.0	1	1.035	0.0	110.0	1	1.12	0.95				
	385	1	10.82	3.5000000000000004	0.0	0.0	1	1.035	0.0	110.0	1	1.12	0.95				
	386	2	0.0	0.0	0.0	0.0	1	1.035	0.0	110.0	1	1.12	0.95				
	387	2	0.0	0.0	0.0	0.0	1	1.035	0.0	110.0	1	1.12	0.95				
	388	1	1.8030000000000002	0.5	0.0	0.0	1	1.035	0.0	110.0	1	1.12	0.95				
	389	1	5.59	2.8	0.0	0.0	1	1.035	0.0	110.0	1	1.12	0.95				
	390	1	7.303	2.94	0.0	0.0	1	1.035	0.0	110.0	1	1.12	0.95				
	391	1	3.9670000000000005	1.7000000000000002	0.0	0.0	1	1.035	0.0	110.0	1	1.12	0.95				
	392	1	6.762	3.42	0.0	0.0	1	1.035	0.0	110.0	1	1.12	0.95				
	393	1	1.082	0.48	0.0	0.0	1	1.035	0.0	110.0	1	1.12	0.95				
	394	1	0.0	0.0	0.0	0.0	1	1.035	0.0	110.0	1	1.12	0.95				
	395	1	0.0	0.0	0.0	0.0	1	1.035	0.0	110.0	1	1.12	0.95				
	396	1	3.1560000000000006	0.3	0.0	0.0	1	1.035	0.0	110.0	1	1.12	0.95				
	397	1	0.0	0.0	0.0	0.0	1	1.035	0.0	110.0	1	1.12	0.95				
	398	1	2.705	1.0	0.0	0.0	1	1.035	0.0	110.0	1	1.12	0.95				
	399	1	2.434	0.5	0.0	0.0	1	1.035	0.0	110.0	1	1.12	0.95				
	400	1	0.0	0.0	0.0	0.0	1	1.035	0.0	110.0	1	1.12	0.95				
	401	1	1.7129999999999999	0.5	0.0	0.0	1	1.035	0.0	110.0	1	1.12	0.95				
	402	1	0.0	0.0	0.0	0.0	1	1.035	0.0	110.0	1	1.12	0.95				
	403	1	2.885	0.8	0.0	0.0	1	1.035	0.0	110.0	1	1.12	0.95				
	404	1	2.164	0.2	0.0	0.0	1	1.035	0.0	110.0	1	1.12	0.95				
	405	1	19.565	6.0	0.0	0.0	1	1.035	0.0	110.0	1	1.12	0.95				
	406	1	17.852	3.8	0.0	0.0	1	1.035	0.0	110.0	1	1.12	0.95				
	407	1	4.057	0.4	0.0	0.0	1	1.035	0.0	110.0	1	1.12	0.95				
	408	1	3.1560000000000006	0.3	0.0	0.0	1	1.035	0.0	110.0	1	1.12	0.95				
	409	1	3.6060000000000003	0.5	0.0	0.0	1	1.035	0.0	110.0	1	1.12	0.95				
	410	1	4.057	0.5	0.0	0.0	1	1.035	0.0	110.0	1	1.12	0.95				
	411	1	4.418	0.7	0.0	0.0	1	1.035	0.0	110.0	1	1.12	0.95				
	412	1	5.409	1.5	0.0	0.0	1	1.035	0.0	110.0	1	1.12	0.95				
	413	1	2.164	0.5	0.0	0.0	1	1.035	0.0	110.0	1	1.12	0.95				
	414	1	0.0	0.0	0.0	0.0	1	1.035	0.0	110.0	1	1.12	0.95				
	415	1	0.0	0.0	0.0	0.0	1	1.035	0.0	110.0	1	1.12	0.95				
	416	1	6.312000000000001	0.699	0.0	0.0	1	1.035	0.0	110.0	1	1.12	0.95				
	417	1	5.41	2.0	0.0	0.0	1	1.035	0.0	110.0	1	1.12	0.95				
	418	1	2.254	0.1	0.0	0.0	1	1.035	0.0	110.0	1	1.12	0.95				
	419	1	8.835	0.7	0.0	0.0	1	1.035	0.0	110.0	1	1.12	0.95				
	420	1	1.984	0.3	0.0	0.0	1	1.035	0.0	110.0	1	1.12	0.95				
	421	1	3.2460000000000004	0.5	0.0	0.0	1	1.035	0.0	110.0	1	1.12	0.95				
	422	1	6.672000000000001	2.22	0.0	0.0	1	1.035	0.0	110.0	1	1.12	0.95				
	423	1	6.672000000000001	2.22	0.0	0.0	1	1.035	0.0	110.0	1	1.12	0.95				
	424	1	3.1549999999999994	0.5	0.0	0.0	1	1.035	0.0	110.0	1	1.12	0.95				
	425	1	5.229	2.3	0.0	0.0	1	1.035	0.0	110.0	1	1.12	0.95				
	426	1	5.68	2.5	0.0	0.0	1	1.035	0.0	110.0	1	1.12	0.95				
	427	1	3.7859999999999996	0.6	0.0	0.0	1	1.035	0.0	110.0	1	1.12	0.95				
	428	1	6.311	1.2	0.0	0.0	1	1.035	0.0	110.0	1	1.12	0.95				
	429	1	3.6060000000000003	2.0	0.0	0.0	1	1.035	0.0	110.0	1	1.12	0.95				
	430	1	5.68	2.29	0.0	0.0	1	1.035	0.0	110.0	1	1.12	0.95				
	431	1	0.0	0.0	0.0	0.0	1	1.035	0.0	110.0	1	1.12	0.95				
	432	1	5.229	0.9000000000000001	0.0	0.0	1	1.035	0.0	110.0	1	1.12	0.95				
	433	1	2.074	0.2	0.0	0.0	1	1.035	0.0	110.0	1	1.12	0.95				
	434	1	4.959	1.8000000000000003	0.0	0.0	1	1.035	0.0	110.0	1	1.12	0.95				
	435	1	4.328	0.8	0.0	0.0	1	1.035	0.0	110.0	1	1.12	0.95				
	436	1	2.975	1.2	0.0	0.0	1	1.035	0.0	110.0	1	1.12	0.95				
	437	1	6.131	2.5	0.0	0.0	1	1.035	0.0	110.0	1	1.12	0.95				
	438	1	4.508	2.0	0.0	0.0	1	1.035	0.0	110.0	1	1.12	0.95				
	439	1	0.0	0.0	0.0	0.0	1	1.035	0.0	110.0	1	1.12	0.95				
	440	1	9.918	2.0	0.0	0.0	1	1.035	0.0	110.0	1	1.12	0.95				
	441	1	4.508	0.5	0.0	0.0	1	1.035	0.0	110.0	1	1.12	0.95				
	442	1	1.082	0.2	0.0	0.0	1	1.035	0.0	110.0	1	1.12	0.95				
	443	1	1.172	0.3	0.0	0.0	1	1.035	0.0	110.0	1	1.12	0.95				
	444	2	2.254	1.0	0.0	0.0	1	1.035	0.0	110.0	1	1.12	0.95				
	445	1	1.6230000000000002	0.1	0.0	0.0	1	1.035	0.0	110.0	1	1.12	0.95				
	446	1	1.6230000000000002	0.71	0.0	0.0	1	1.035	0.0	110.0	1	1.12	0.95				
	447	1	6.492000000000001	2.61	0.0	0.0	1	1.035	0.0	110.0	1	1.12	0.95				
	448	1	3.1560000000000006	0.4	0.0	0.0	1	1.035	0.0	110.0	1	1.12	0.95				
	449	1	1.172	0.3	0.0	0.0	1	1.035	0.0	110.0	1	1.12	0.95				
	450	1	3.6060000000000003	1.5	0.0	0.0	1	1.035	0.0	110.0	1	1.12	0.95				
	451	2	0.0	0.0	0.0	0.0	1	1.035	0.0	110.0	1	1.12	0.95				
	452	1	2.904	0.0	0.0	0.0	1	1.035	0.0	110.0	1	1.12	0.95				
	453	2	5.501	0.2	0.0	0.0	1	1.035	0.0	110.0	1	1.12	0.95				
	454	1	1.8030000000000002	0.5	0.0	0.0	1	1.035	0.0	110.0	1	1.12	0.95				
	455	1	2.704	1.1	0.0	0.0	1	1.035	0.0	110.0	1	1.12	0.95				
	456	1	7.663	3.0	0.0	0.0	1	1.035	0.0	110.0	1	1.12	0.95				
	457	1	0.902	0.1	0.0	0.0	1	1.035	0.0	110.0	1	1.12	0.95				
	458	1	6.762	1.8000000000000003	0.0	0.0	1	1.035	0.0	110.0	1	1.12	0.95				
	459	1	4.508	1.0	0.0	0.0	1	1.035	0.0	110.0	1	1.12	0.95				
	460	1	6.671	1.3	0.0	0.0	1	1.035	0.0	110.0	1	1.12	0.95				
	461	1	4.057	0.4	0.0	0.0	1	1.035	0.0	110.0	1	1.12	0.95				
	462	1	1.984	0.5	0.0	0.0	1	1.035	0.0	110.0	1	1.12	0.95				
	463	1	8.114	1.5	0.0	0.0	1	1.035	0.0	110.0	1	1.12	0.95				
	464	1	4.508	2.5	0.0	0.0	1	1.035	0.0	110.0	1	1.12	0.95				
	465	1	4.508	1.0	0.0	0.0	1	1.035	0.0	110.0	1	1.12	0.95				
	466	1	4.508	1.1	0.0	0.0	1	1.035	0.0	110.0	1	1.12	0.95				
	467	1	8.836	5.3	0.0	0.0	1	1.035	0.0	110.0	1	1.12	0.95				
	468	1	7.213	1.0	0.0	0.0	1	1.035	0.0	110.0	1	1.12	0.95				
	469	1	3.6060000000000003	0.4	0.0	0.0	1	1.035	0.0	110.0	1	1.12	0.95				
	470	1	3.065	1.23	0.0	0.0	1	1.035	0.0	110.0	1	1.12	0.95				
	471	1	2.344	1.0	0.0	0.0	1	1.035	0.0	110.0	1	1.12	0.95				
	472	1	2.524	1.02	0.0	0.0	1	1.035	0.0	110.0	1	1.12	0.95				
	473	1	1.082	0.2	0.0	0.0	1	1.035	0.0	110.0	1	1.12	0.95				
	474	1	1.8030000000000002	0.3	0.0	0.0	1	1.035	0.0	110.0	1	1.12	0.95				
	475	1	7.212000000000001	0.5	0.0	0.0	1	1.035	0.0	110.0	1	1.12	0.95				
	476	1	0.902	0.5	0.0	0.0	1	1.035	0.0	110.0	1	1.12	0.95				
	477	1	0.902	0.5	0.0	0.0	1	1.035	0.0	110.0	1	1.12	0.95				
	478	1	5.409	1.0	0.0	0.0	1	1.035	0.0	110.0	1	1.12	0.95				
	479	1	1.984	0.2	0.0	0.0	1	1.035	0.0	110.0	1	1.12	0.95				
	480	1	1.082	0.2	0.0	0.0	1	1.035	0.0	110.0	1	1.12	0.95				
	481	1	8.114	4.0	0.0	0.0	1	1.035	0.0	110.0	1	1.12	0.95				
	482	1	8.746	3.52	0.0	0.0	1	1.035	0.0	110.0	1	1.12	0.95				
	483	1	3.6060000000000003	0.9000000000000001	0.0	0.0	1	1.035	0.0	110.0	1	1.12	0.95				
	484	1	1.352	0.2	0.0	0.0	1	1.035	0.0	110.0	1	1.12	0.95				
	485	1	1.8030000000000002	0.0	0.0	0.0	1	1.035	0.0	110.0	1	1.12	0.95				
	486	2	2.975	0.3	0.0	0.0	1	1.035	0.0	110.0	1	1.12	0.95				
	487	1	2.524	0.3	0.0	0.0	1	1.035	0.0	110.0	1	1.12	0.95				
	488	1	3.1560000000000006	1.0	0.0	0.0	1	1.035	0.0	110.0	1	1.12	0.95				
	489	1	3.1560000000000006	1.0	0.0	0.0	1	1.035	0.0	110.0	1	1.12	0.95				
	490	1	14.876000000000001	3.5000000000000004	0.0	0.0	1	1.035	0.0	110.0	1	1.12	0.95				
	491	1	7.664	4.5	0.0	0.0	1	1.035	0.0	110.0	1	1.12	0.95				
	492	1	1.8030000000000002	0.6	0.0	0.0	1	1.035	0.0	110.0	1	1.12	0.95				
	493	1	2.705	0.9000000000000001	0.0	0.0	1	1.035	0.0	110.0	1	1.12	0.95				
	494	1	1.8030000000000002	0.5	0.0	0.0	1	1.035	0.0	110.0	1	1.12	0.95				
	495	1	7.664	2.55	0.0	0.0	1	1.035	0.0	110.0	1	1.12	0.95				