%% MATPOWER Case Format : Version 2
function mpc = pglib_opf_case5_pjm
mpc.version = '2';

%%-----  Power Flow Data  -----%%
%% system MVA base
mpc.baseMVA = 100.0;
%% bus data
%    bus_i    type    Pd    Qd    Gs    Bs    area    Vm    Va    baseKV    zone    Vmax    Vmin
mpc.bus = [
	1	2	0.0	0.0	0.0	0.0	1	1.0	0.0	230.0	1	1.1	0.9				
	2	1	300.0	98.61	0.0	0.0	1	1.0	0.0	230.0	1	1.1	0.9				
	3	2	300.0	98.61	0.0	0.0	1	1.0	0.0	230.0	1	1.1	0.9				
	4	3	400.0	131.47	0.0	0.0	1	1.0	0.0	230.0	1	1.1	0.9				
	5	2	0.0	0.0	0.0	0.0	1	1.0	0.0	230.0	1	1.1	0.9				
];

%% generator data
%    bus    Pg    Qg    Qmax    Qmin    Vg    mBase    status    Pmax    Pmin    Pc1    Pc2    Qc1min    Qc1max    Qc2min    Qc2max    ramp_agc    ramp_10    ramp_30    ramp_q    apf
mpc.gen = [
	1	20.0	0.0	30.0	-30.0	1.0	100.0	1	40.0	0.0															
	1	85.0	0.0	127.49999999999999	-127.49999999999999	1.0	100.0	1	170.0	0.0															
	3	260.0	0.0	390.0	-390.0	1.0	100.0	1	520.0	0.0															
	4	100.0	0.0	150.0	-150.0	1.0	100.0	1	200.0	0.0															
	5	300.0	0.0	450.0	-450.0	1.0	100.0	1	600.0	0.0															
];

%% branch data
%    f_bus    t_bus    r    x    b    rateA    rateB    rateC    ratio    angle    status    angmin    angmax
mpc.branch = [
	1	2	0.0028216882402598976	0.028216882393756502	-0.09218520889423129	400.0	400.0	400.0	0	0	1	-29.999999999999996	29.999999999999996								
	1	4	0.0030346181814526266	0.030346181803231693	-0.0011141847559916456	426.0	426.0	426.0	0	0	1	-29.999999999999996	29.999999999999996								
	1	5	0.0006392598409122785	0.006392598409024759	-0.0011140278930368908	426.0	426.0	426.0	0	0	1	-29.999999999999996	29.999999999999996								
	2	3	0.0010765750104364995	0.010765750103888123	-0.0011139680484717291	426.0	426.0	426.0	0	0	1	-29.999999999999996	29.999999999999996								
	3	4	0.002960043030473559	0.02960043029421252	-0.0011150070218586498	426.0	426.0	426.0	0	0	1	-29.999999999999996	29.999999999999996								
	4	5	0.0029816979531774052	0.02981697952121518	-0.09390701649469839	240.0	240.0	240.0	0	0	1	-29.999999999999996	29.999999999999996								
];

%%-----  OPF Data  -----%%
%% cost data
%    1    startup    shutdown    n    x1    y1    ...    xn    yn
%    2    startup    shutdown    n    c(n-1)    ...    c0
mpc.gencost = [
	2	0.0	0.0	2	14.0	0.0
	2	0.0	0.0	2	15.0	0.0
	2	0.0	0.0	2	30.0	0.0
	2	0.0	0.0	2	40.0	0.0
	2	0.0	0.0	2	10.0	0.0
];

