%% MATPOWER Case Format : Version 2
function mpc = pglib_opf_case2868_rte
mpc.version = '2';

%%-----  Power Flow Data  -----%%
%% system MVA base
mpc.baseMVA = 100.0;
%% bus data
%    bus_i    type    Pd    Qd    Gs    Bs    area    Vm    Va    baseKV    zone    Vmax    Vmin
mpc.bus = [
	1	1	-18.5	0.0	0.0	0.0	1	1.0	0.0	63.0	1	1.06349	0.93651				
	2	1	11.8	0.6	0.0	0.0	1	0.98889	0.0	225.0	1	1.08889	0.88889				
	3	1	0.0	0.0	0.0	0.0	1	1.05131	0.0	380.0	1	1.10263	1.0				
	4	1	0.0	0.0	0.0	0.0	1	1.0	0.0	63.0	1	1.07937	0.92063				
	5	1	0.2	-0.2	0.0	0.0	1	0.94444	0.0	45.0	1	1.0	0.88889				
	6	1	5.6	-19.0	0.0	0.0	1	0.94444	0.0	45.0	1	1.0	0.88889				
	7	1	223.59999999999997	7.6	0.0	0.0	1	1.04222	0.0	225.0	1	1.08444	1.0				
	8	1	68.6	7.6	0.0	0.0	1	1.01587	0.0	63.0	1	1.06349	0.96825				
	10	1	0.0	0.0	0.0	0.0	1	1.00334	0.0	150.0	1	1.10667	0.9				
	11	1	49.1	0.9000000000000001	0.0	0.0	1	1.01111	0.0	225.0	1	1.08889	0.93333				
	12	1	0.0	0.0	0.0	0.0	1	1.05263	0.0	380.0	1	1.10526	1.0				
	13	1	0.0	0.0	0.0	0.0	1	1.04534	0.0	225.0	1	1.09067	1.0				
	14	1	0.2	-1.1	0.0	0.0	1	1.0	0.0	63.0	1	1.06349	0.93651				
	15	1	10.3	-0.2	0.0	0.0	1	1.0	0.0	63.0	1	1.06349	0.93651				
	16	1	189.8	54.400000000000006	0.0	0.0	1	1.01111	0.0	225.0	1	1.08889	0.93333				
	17	1	54.50000000000001	13.100000000000001	0.0	0.0	1	1.04445	0.0	225.0	1	1.08889	1.0				
	18	1	67.6	23.2	0.0	0.0	1	1.04481	0.0	225.0	1	1.08962	1.0				
	19	2	0.0	0.0	0.0	0.0	1	1.00362	0.0	63.0	1	1.08661	0.92063				
	20	1	150.5	40.0	0.0	0.0	1	1.04445	0.0	225.0	1	1.08889	1.0				
	21	2	78.1	6.2	0.0	0.0	1	0.98889	0.0	225.0	1	1.08889	0.88889				
	22	1	15.0	-9.4	0.0	0.0	1	1.0045	0.0	63.0	1	1.07249	0.93651				
	23	1	50.9	6.0	0.0	0.0	1	1.0	0.0	63.0	1	1.06349	0.93651				
	24	1	0.0	0.0	0.0	0.0	1	1.04445	0.0	225.0	1	1.08889	1.0				
	25	1	65.1	1.6	0.0	0.0	1	0.98889	0.0	225.0	1	1.08889	0.88889				
	26	1	1.6	-4.2	0.0	0.0	1	1.04158	0.0	225.0	1	1.09649	0.98667				
	27	1	42.8	2.3	0.0	0.0	1	1.0	0.0	63.0	1	1.06349	0.93651				
	28	1	39.4	15.5	0.0	0.0	1	1.04445	0.0	225.0	1	1.08889	1.0				
	29	1	11.4	0.5	0.0	0.0	1	1.0	0.0	63.0	1	1.06349	0.93651				
	30	1	72.7	36.5	0.0	0.0	1	1.04445	0.0	225.0	1	1.08889	1.0				
	31	2	2.7	-1.4	0.0	0.0	1	1.00431	0.0	63.0	1	1.07211	0.93651				
	32	1	13.8	-0.4	0.0	0.0	1	1.0	0.0	63.0	1	1.06349	0.93651				
	33	1	2.0	-0.5	0.0	0.0	1	0.94444	0.0	45.0	1	1.0	0.88889				
	34	1	0.4	0.0	0.0	0.0	1	0.94444	0.0	45.0	1	1.0	0.88889				
	35	1	30.4	3.0	0.0	0.0	1	1.01587	0.0	63.0	1	1.06349	0.96825				
	36	1	1.9	-3.1	0.0	0.0	1	0.94444	0.0	45.0	1	1.0	0.88889				
	37	1	18.9	0.9000000000000001	0.0	0.0	1	1.0	0.0	63.0	1	1.06349	0.93651				
	38	2	0.0	0.0	0.0	0.0	1	1.01588	0.0	63.0	1	1.07937	0.95238				
	39	1	99.3	18.8	0.0	0.0	1	1.038	0.0	225.0	1	1.08934	0.98667				
	40	1	38.7	0.9000000000000001	0.0	0.0	1	0.98889	0.0	225.0	1	1.08889	0.88889				
	41	1	89.8	13.0	0.0	0.0	1	1.04222	0.0	225.0	1	1.08444	1.0				
	42	1	63.9	9.7	0.0	0.0	1	1.0001	0.0	63.0	1	1.0637	0.93651				
	43	1	0.0	0.0	0.0	0.0	1	1.01111	0.0	225.0	1	1.08889	0.93333				
	44	1	33.1	-6.5	0.0	0.0	1	1.01587	0.0	63.0	1	1.06349	0.96825				
	45	1	168.4	34.9	0.0	0.0	1	1.04445	0.0	225.0	1	1.08889	1.0				
	46	1	0.0	0.0	0.0	0.0	1	1.05263	0.0	380.0	1	1.10526	1.0				
	47	1	29.5	4.5	0.0	0.0	1	1.00128	0.0	63.0	1	1.06606	0.93651				
	48	1	1.6	0.0	0.0	0.0	1	1.00193	0.0	63.0	1	1.06735	0.93651				
	49	1	14.899999999999999	10.4	0.0	0.0	1	1.01587	0.0	63.0	1	1.06349	0.96825				
	50	1	0.0	0.0	0.0	0.0	1	1.04222	0.0	225.0	1	1.08444	1.0				
	51	1	114.9	20.2	0.0	0.0	1	1.04222	0.0	225.0	1	1.08444	1.0				
	52	1	0.0	0.0	0.0	0.0	1	1.04445	0.0	225.0	1	1.08889	1.0				
	53	2	5.7	-6.6000000000000005	0.0	0.0	1	1.01587	0.0	63.0	1	1.06349	0.96825				
	54	1	0.0	0.0	0.0	0.0	1	1.02333	0.0	150.0	1	1.08	0.96667				
	55	1	65.6	18.0	0.0	80.0	1	1.0473	0.0	225.0	1	1.09459	1.0				
	56	1	0.0	0.0	0.0	0.0	1	1.05263	0.0	380.0	1	1.10526	1.0				
	57	1	146.4	39.1	0.0	0.0	1	1.03778	0.0	225.0	1	1.08889	0.98667				
	59	1	78.7	21.1	0.0	0.0	1	1.02889	0.0	225.0	1	1.08889	0.96889				
	60	1	125.2	37.6	0.0	0.0	1	1.05263	0.0	380.0	1	1.10526	1.0				
	61	1	6.0	1.0	0.0	0.0	1	1.0	0.0	63.0	1	1.06349	0.93651				
	63	1	36.1	4.7	0.0	7.7	1	1.01587	0.0	63.0	1	1.06349	0.96825				
	64	1	53.29999999999999	13.4	0.0	0.0	1	1.01111	0.0	225.0	1	1.08889	0.93333				
	65	1	0.0	0.0	0.0	0.0	1	1.01587	0.0	63.0	1	1.06349	0.96825				
	66	1	43.4	-0.7	0.0	0.0	1	0.94444	0.0	45.0	1	1.0	0.88889				
	67	1	41.3	12.8	0.0	0.0	1	0.98889	0.0	225.0	1	1.08889	0.88889				
	68	1	19.6	3.7000000000000006	0.0	0.0	1	1.0	0.0	20.0	1	1.2	0.8				
	69	1	320.7	74.9	0.0	0.0	1	1.04343	0.0	225.0	1	1.08685	1.0				
	70	1	140.9	-22.3	0.0	0.0	1	1.04445	0.0	225.0	1	1.08889	1.0				
	71	2	0.0	0.0	0.0	0.0	1	1.00442	0.0	150.0	1	1.10885	0.9				
	72	1	0.0	0.0	0.0	0.0	1	1.04445	0.0	225.0	1	1.08889	1.0				
	74	1	0.0	0.0	0.0	0.0	1	1.04445	0.0	225.0	1	1.08889	1.0				
	75	1	15.6	3.0	0.0	0.0	1	1.0	0.0	63.0	1	1.06349	0.93651				
	76	2	0.0	0.0	0.0	0.0	1	0.94444	0.0	45.0	1	1.0	0.88889				
	77	2	6.4	0.3	0.0	0.0	1	1.00272	0.0	63.0	1	1.08481	0.92063				
	78	1	4.8	2.4	0.0	0.0	1	1.04445	0.0	225.0	1	1.08889	1.0				
	79	1	17.4	1.7000000000000002	0.0	15.0	1	1.0	0.0	63.0	1	1.07937	0.92063				
	80	1	10.0	-0.6	0.0	0.0	1	1.00404	0.0	63.0	1	1.08744	0.92063				
	81	1	0.0	0.0	0.0	0.0	1	1.04445	0.0	225.0	1	1.08889	1.0				
	82	1	63.1	25.3	0.0	0.0	1	0.98889	0.0	225.0	1	1.08889	0.88889				
	83	1	44.1	1.9	0.0	0.0	1	1.01544	0.0	63.0	1	1.06349	0.9674				
	84	1	162.3	51.1	0.0	0.0	1	1.02889	0.0	225.0	1	1.08889	0.96889				
	85	1	0.0	0.0	0.0	0.0	1	1.05263	0.0	380.0	1	1.10526	1.0				
	86	1	58.3	14.099999999999998	0.0	0.0	1	1.01587	0.0	63.0	1	1.06349	0.96825				
	87	1	32.5	4.6	0.0	0.0	1	1.01587	0.0	63.0	1	1.06349	0.96825				
	88	1	1.5	0.7	0.0	0.0	1	1.01587	0.0	63.0	1	1.06349	0.96825				
	89	1	55.7	8.3	0.0	0.0	1	1.01587	0.0	63.0	1	1.06349	0.96825				
	90	1	0.0	0.0	0.0	0.0	1	1.04222	0.0	225.0	1	1.08444	1.0				
	91	1	190.1	8.0	0.0	0.0	1	1.04445	0.0	225.0	1	1.08889	1.0				
	92	1	36.8	-8.5	0.0	0.0	1	1.01187	0.0	225.0	1	1.09041	0.93333				
	93	1	0.0	0.0	0.0	0.0	1	1.00453	0.0	150.0	1	1.10907	0.9				
	94	1	35.7	55.7	0.0	0.0	1	1.04222	0.0	225.0	1	1.08444	1.0				
	95	1	0.0	0.0	0.0	0.0	1	1.03333	0.0	225.0	1	1.08889	0.97778				
	96	1	15.9	4.1	0.0	0.0	1	0.98889	0.0	225.0	1	1.08889	0.88889				
	97	1	40.4	6.5	0.0	0.0	1	1.01587	0.0	63.0	1	1.06349	0.96825				
	98	1	-3.5000000000000004	-1.6	0.0	0.0	1	1.01111	0.0	225.0	1	1.08889	0.93333				
	99	1	18.2	5.5	0.0	0.0	1	1.04445	0.0	225.0	1	1.08889	1.0				
	100	1	-17.2	-4.3	0.0	0.0	1	1.04445	0.0	225.0	1	1.08889	1.0				
	101	1	24.4	1.9	0.0	0.0	1	1.03778	0.0	225.0	1	1.08889	0.98667				
	102	1	0.0	0.0	0.0	80.0	1	0.98889	0.0	225.0	1	1.08889	0.88889				
	103	1	0.0	0.0	0.0	0.0	1	1.05263	0.0	380.0	1	1.10526	1.0				
	104	1	74.9	14.3	0.0	0.0	1	1.04445	0.0	225.0	1	1.08889	1.0				
	105	1	11.4	9.2	0.0	0.0	1	1.0	0.0	63.0	1	1.07937	0.92063				
	106	1	0.0	0.0	0.0	0.0	1	1.03333	0.0	225.0	1	1.08889	0.97778				
	107	1	5.7	10.3	0.0	0.0	1	1.01587	0.0	63.0	1	1.06349	0.96825				
	108	1	54.1	1.9	0.0	0.0	1	1.04222	0.0	225.0	1	1.08444	1.0				
	109	1	0.0	0.0	0.0	0.0	1	1.04222	0.0	225.0	1	1.08444	1.0				
	110	1	0.0	0.0	0.0	0.0	1	1.05131	0.0	380.0	1	1.10263	1.0				
	111	1	103.3	18.0	0.0	0.0	1	1.04222	0.0	225.0	1	1.08444	1.0				
	112	1	-1.5	2.2	0.0	0.0	1	1.04517	0.0	225.0	1	1.09035	1.0				
	113	1	47.0	9.8	0.0	0.0	1	0.98889	0.0	225.0	1	1.08889	0.88889				
	114	1	43.8	0.6	0.0	0.0	1	1.0	0.0	63.0	1	1.06349	0.93651				
	115	2	16.4	1.2	0.0	0.0	1	0.98889	0.0	225.0	1	1.08889	0.88889				
	116	1	56.89999999999999	18.9	0.0	0.0	1	0.98889	0.0	225.0	1	1.08889	0.88889				
	117	1	3.2	0.4	0.0	0.0	1	1.01587	0.0	63.0	1	1.06349	0.96825				
	118	1	44.0	10.0	0.0	0.0	1	1.0	0.0	63.0	1	1.07937	0.92063				
	119	1	28.499999999999996	-5.1	0.0	0.0	1	1.01587	0.0	63.0	1	1.06349	0.96825				
	120	2	0.0	0.0	0.0	0.0	1	1.00257	0.0	63.0	1	1.06863	0.93651				
	121	1	8.5	3.1	0.0	0.0	1	1.01587	0.0	63.0	1	1.06349	0.96825				
	122	1	142.7	-26.6	0.0	0.0	1	1.04445	0.0	225.0	1	1.08889	1.0				
	123	1	32.4	7.9	0.0	0.0	1	1.0	0.0	63.0	1	1.07937	0.92063				
	124	2	4.7	-2.0	0.0	0.0	1	1.00133	0.0	63.0	1	1.08203	0.92063				
	125	1	0.0	0.0	0.0	0.0	1	1.0	0.0	63.0	1	1.07937	0.92063				
	126	1	0.0	0.0	0.0	0.0	1	1.04445	0.0	225.0	1	1.08889	1.0				
	127	1	0.0	0.0	0.0	0.0	1	1.05263	0.0	380.0	1	1.10526	1.0				
	128	1	26.400000000000002	3.8	0.0	0.0	1	1.0	0.0	63.0	1	1.06349	0.93651				
	129	2	16.3	7.5	0.0	0.0	1	1.0	0.0	63.0	1	1.06349	0.93651				
	130	1	10.9	16.3	0.0	0.0	1	1.0	0.0	63.0	1	1.07937	0.92063				
	131	1	0.0	0.0	0.0	0.0	1	1.04445	0.0	225.0	1	1.08889	1.0				
	132	1	139.1	40.0	0.0	0.0	1	1.04445	0.0	225.0	1	1.08889	1.0				
	133	2	9.2	3.6000000000000005	0.0	0.0	1	1.01682	0.0	63.0	1	1.06538	0.96825				
	134	2	0.0	0.0	0.0	0.0	1	1.02333	0.0	150.0	1	1.08	0.96667				
	135	2	-14.899999999999999	-4.8	0.0	0.0	1	1.0	0.0	63.0	1	1.07937	0.92063				
	136	1	31.7	10.2	0.0	0.0	1	1.03778	0.0	225.0	1	1.08889	0.98667				
	137	1	9.7	-2.1	0.0	0.0	1	1.01587	0.0	63.0	1	1.06349	0.96825				
	138	1	12.8	5.8	0.0	0.0	1	1.04222	0.0	225.0	1	1.08444	1.0				
	140	1	0.0	0.0	0.0	0.0	1	1.05263	0.0	380.0	1	1.10526	1.0				
	141	1	20.8	1.1	0.0	0.0	1	1.04445	0.0	225.0	1	1.08889	1.0				
	142	1	10.3	9.6	0.0	0.0	1	1.04445	0.0	225.0	1	1.08889	1.0				
	143	1	28.7	2.3	0.0	0.0	1	1.01587	0.0	63.0	1	1.06349	0.96825				
	144	1	82.9	11.1	0.0	0.0	1	1.0	0.0	150.0	1	1.1	0.9				
	145	1	72.9	0.2	0.0	0.0	1	1.04462	0.0	225.0	1	1.08925	1.0				
	146	2	-3.7000000000000006	-0.5	0.0	0.0	1	1.04445	0.0	225.0	1	1.08889	1.0				
	147	1	0.0	0.0	0.0	0.0	1	1.01111	0.0	225.0	1	1.08889	0.93333				
	148	1	0.0	0.0	0.0	0.0	1	1.05263	0.0	380.0	1	1.10526	1.0				
	149	1	0.0	0.0	0.0	0.0	1	1.04445	0.0	225.0	1	1.08889	1.0				
	150	1	0.0	0.0	0.0	0.0	1	1.03778	0.0	225.0	1	1.08889	0.98667				
	151	1	24.0	9.7	0.0	0.0	1	1.04445	0.0	225.0	1	1.08889	1.0				
	153	1	137.1	23.1	0.0	0.0	1	1.01111	0.0	225.0	1	1.08889	0.93333				
	154	1	0.0	0.0	0.0	0.0	1	1.05263	0.0	380.0	1	1.10526	1.0				
	155	1	55.3	18.4	0.0	0.0	1	1.04445	0.0	225.0	1	1.08889	1.0				
	156	1	30.9	4.2	0.0	0.0	1	1.00077	0.0	63.0	1	1.06503	0.93651				
	157	1	2.4	0.4	0.0	0.0	1	1.01587	0.0	63.0	1	1.06349	0.96825				
	158	2	27.500000000000004	2.2	0.0	0.0	1	1.0	0.0	63.0	1	1.07937	0.92063				
	159	1	24.3	1.9	0.0	0.0	1	1.01587	0.0	63.0	1	1.06349	0.96825				
	160	1	5.6	3.0	0.0	0.0	1	1.0	0.0	63.0	1	1.06349	0.93651				
	161	2	0.0	0.0	0.0	0.0	1	0.975	0.0	63.0	1	1.15	0.8				
	162	1	0.5	-40.5	0.0	0.0	1	1.04527	0.0	225.0	1	1.09053	1.0				
	163	1	0.0	0.0	0.0	0.0	1	1.01587	0.0	63.0	1	1.06349	0.96825				
	164	1	109.3	-1.7000000000000002	0.0	0.0	1	1.04895	0.0	225.0	1	1.09791	1.0				
	165	1	187.3	17.6	0.0	0.0	1	1.03778	0.0	225.0	1	1.08889	0.98667				
	166	1	51.6	6.2	0.0	0.0	1	1.01587	0.0	63.0	1	1.06349	0.96825				
	167	1	119.30000000000001	36.7	0.0	0.0	1	1.04534	0.0	225.0	1	1.09067	1.0				
	168	1	14.099999999999998	-5.7	0.0	0.0	1	1.0	0.0	63.0	1	1.06349	0.93651				
	169	1	24.1	-4.6	0.0	0.0	1	1.01587	0.0	63.0	1	1.06349	0.96825				
	170	1	1.8000000000000003	0.3	0.0	0.0	1	1.00236	0.0	63.0	1	1.06822	0.93651				
	171	1	181.5	51.4	0.0	0.0	1	1.00667	0.0	225.0	1	1.08889	0.92444				
	172	1	0.0	1.2	0.0	0.0	1	1.01587	0.0	63.0	1	1.06349	0.96825				
	173	1	82.5	15.9	0.0	0.0	1	1.04141	0.0	225.0	1	1.09616	0.98667				
	174	1	0.0	0.0	0.0	0.0	1	1.05263	0.0	380.0	1	1.10526	1.0				
	175	1	120.7	-49.6	0.0	0.0	1	1.04222	0.0	225.0	1	1.08444	1.0				
	177	1	0.0	0.0	0.0	0.0	1	1.01217	0.0	63.0	1	1.06349	0.96086				
	178	1	0.0	0.0	0.0	0.0	1	1.04222	0.0	225.0	1	1.08444	1.0				
	179	1	0.0	0.0	0.0	0.0	1	1.05131	0.0	380.0	1	1.10263	1.0				
	180	1	5.0	0.6	0.0	0.0	1	1.01111	0.0	225.0	1	1.08889	0.93333				
	181	1	-3.0	-14.3	0.0	0.0	1	0.9527	0.0	45.0	1	1.01652	0.88889				
	182	1	0.0	0.0	0.0	0.0	1	1.0	0.0	63.0	1	1.06349	0.93651				
	183	1	0.0	0.0	0.0	0.0	1	1.01111	0.0	225.0	1	1.08889	0.93333				
	184	1	0.0	0.0	0.0	0.0	1	1.03333	0.0	225.0	1	1.08889	0.97778				
	185	1	22.3	-2.2	0.0	0.0	1	1.0	0.0	63.0	1	1.06349	0.93651				
	186	1	-2.4	-2.2	0.0	0.0	1	1.04931	0.0	225.0	1	1.09862	1.0				
	187	1	0.0	0.0	0.0	0.0	1	1.05263	0.0	380.0	1	1.10526	1.0				
	188	1	0.0	0.0	0.0	0.0	1	1.04175	0.0	225.0	1	1.09683	0.98667				
	189	1	0.0	0.0	0.0	0.0	1	1.05263	0.0	380.0	1	1.10526	1.0				
	190	1	39.7	-5.2	0.0	0.0	1	1.02889	0.0	225.0	1	1.08889	0.96889				
	191	1	36.6	-1.4	0.0	0.0	1	1.01587	0.0	63.0	1	1.06349	0.96825				
	192	1	38.7	6.800000000000001	0.0	0.0	1	1.04222	0.0	225.0	1	1.08444	1.0				
	193	1	51.7	10.5	0.0	0.0	1	1.05263	0.0	380.0	1	1.10526	1.0				
	194	1	0.0	0.0	0.0	0.0	1	1.0	0.0	63.0	1	1.06349	0.93651				
	195	1	0.0	0.0	0.0	0.0	1	1.01111	0.0	225.0	1	1.08889	0.93333				
	196	1	0.0	0.0	0.0	0.0	1	1.05263	0.0	380.0	1	1.10526	1.0				
	197	1	6.2	17.4	0.0	0.0	1	1.01587	0.0	63.0	1	1.06349	0.96825				
	198	1	0.0	0.0	0.0	0.0	1	1.04222	0.0	225.0	1	1.08444	1.0				
	199	1	250.8	25.3	0.0	0.0	1	1.04222	0.0	225.0	1	1.08444	1.0				
	200	1	47.3	6.4	0.0	0.0	1	1.01111	0.0	225.0	1	1.08889	0.93333				
	201	1	51.0	0.4	0.0	0.0	1	1.04514	0.0	225.0	1	1.09027	1.0				
	202	1	0.0	0.0	0.0	0.0	1	1.04765	0.0	225.0	1	1.09529	1.0				
	203	1	76.8	4.7	0.0	0.0	1	1.04445	0.0	225.0	1	1.08889	1.0				
	204	1	31.4	-2.8	0.0	0.0	1	1.04445	0.0	225.0	1	1.08889	1.0				
	205	1	0.0	0.0	0.0	0.0	1	1.01587	0.0	63.0	1	1.06349	0.96825				
	206	1	0.0	0.0	0.0	0.0	1	1.04222	0.0	225.0	1	1.08444	1.0				
	207	1	13.900000000000002	5.2	0.0	0.0	1	1.01587	0.0	63.0	1	1.06349	0.96825				
	208	1	6.3	5.0	0.0	0.0	1	1.0	0.0	63.0	1	1.07937	0.92063				
	209	1	44.8	-0.6	0.0	0.0	1	1.0	0.0	63.0	1	1.06349	0.93651				
	210	1	0.0	0.0	0.0	0.0	1	1.0	0.0	63.0	1	1.07937	0.92063				
	211	1	33.9	5.9	0.0	0.0	1	1.04445	0.0	225.0	1	1.08889	1.0				
	212	1	0.0	0.0	0.0	0.0	1	1.04222	0.0	225.0	1	1.08444	1.0				
	213	1	0.0	0.0	0.0	0.0	1	1.04222	0.0	225.0	1	1.08444	1.0				
	214	1	0.0	0.0	0.0	0.0	1	1.05131	0.0	380.0	1	1.10263	1.0				
	215	1	-3.6000000000000005	-5.3	0.0	0.0	1	1.00034	0.0	63.0	1	1.06418	0.93651				
	216	1	186.0	34.8	0.0	0.0	1	0.98889	0.0	225.0	1	1.08889	0.88889				
	217	1	0.0	0.0	0.0	0.0	1	1.0493	0.0	225.0	1	1.09861	1.0				
	218	1	0.0	0.0	0.0	0.0	1	1.05263	0.0	380.0	1	1.10526	1.0				
	219	1	37.1	2.4	0.0	0.0	1	1.03778	0.0	225.0	1	1.08889	0.98667				
	220	2	0.0	0.0	0.0	0.0	1	1.01587	0.0	63.0	1	1.06349	0.96825				
	221	1	22.8	6.4	0.0	0.0	1	1.0	0.0	63.0	1	1.07937	0.92063				
	222	1	0.0	0.0	0.0	0.0	1	1.04445	0.0	225.0	1	1.08889	1.0				
	223	1	0.0	0.0	0.0	0.0	1	1.04222	0.0	225.0	1	1.08444	1.0				
	224	1	70.6	-9.6	0.0	0.0	1	1.04222	0.0	225.0	1	1.08444	1.0				
	225	2	0.0	0.0	0.0	0.0	1	1.0	0.0	20.0	1	1.2	0.8				
	226	1	0.0	0.0	0.0	0.0	1	1.01111	0.0	225.0	1	1.08889	0.93333				
	227	1	15.7	-0.9000000000000001	0.0	0.0	1	1.03778	0.0	225.0	1	1.08889	0.98667				
	229	1	0.0	0.0	0.0	0.0	1	1.0452	0.0	225.0	1	1.0904	1.0				
	230	1	0.0	0.0	0.0	0.0	1	1.05263	0.0	380.0	1	1.10526	1.0				
	231	2	0.0	0.0	0.0	0.0	1	1.01111	0.0	225.0	1	1.08889	0.93333				
	232	1	13.4	1.0	0.0	0.0	1	1.01587	0.0	63.0	1	1.06349	0.96825				
	233	1	0.0	0.0	0.0	0.0	1	1.02333	0.0	150.0	1	1.08	0.96667				
	234	1	3.8	0.2	0.0	0.0	1	1.04445	0.0	225.0	1	1.08889	1.0				
	235	2	0.0	0.0	0.0	0.0	1	1.0	0.0	63.0	1	1.06349	0.93651				
	236	2	26.8	0.8	0.0	0.0	1	1.01587	0.0	63.0	1	1.06349	0.96825				
	237	1	15.0	0.1	0.0	0.0	1	1.0	0.0	63.0	1	1.06349	0.93651				
	238	1	48.1	15.9	0.0	0.0	1	0.98889	0.0	225.0	1	1.08889	0.88889				
	239	1	0.0	0.0	0.0	0.0	1	1.04595	0.0	225.0	1	1.0919	1.0				
	240	2	0.0	0.0	0.0	0.0	1	1.05347	0.0	380.0	1	1.10694	1.0				
	241	1	13.8	6.5	0.0	0.0	1	1.00186	0.0	63.0	1	1.06721	0.93651				
	242	1	43.7	6.5	0.0	0.0	1	1.01587	0.0	63.0	1	1.06349	0.96825				
	243	1	165.4	29.4	0.0	0.0	1	1.04445	0.0	225.0	1	1.08889	1.0				
	244	1	39.8	7.7	0.0	0.0	1	1.01587	0.0	63.0	1	1.06349	0.96825				
	245	1	36.4	15.7	0.0	0.0	1	1.03778	0.0	225.0	1	1.08889	0.98667				
	246	1	0.0	0.0	0.0	0.0	1	1.05263	0.0	380.0	1	1.10526	1.0				
	247	1	42.1	16.7	0.0	0.0	1	1.00667	0.0	225.0	1	1.08889	0.92444				
	248	1	24.3	1.4	0.0	0.0	1	1.0	0.0	63.0	1	1.06349	0.93651				
	249	1	13.600000000000001	-1.2	0.0	0.0	1	1.0	0.0	63.0	1	1.06349	0.93651				
	250	1	-2.7	0.0	0.0	0.0	1	1.03778	0.0	225.0	1	1.08889	0.98667				
	251	1	87.5	47.6	0.0	0.0	1	1.04342	0.0	225.0	1	1.08684	1.0				
	252	2	0.0	0.0	0.0	0.0	1	0.94444	0.0	45.0	1	1.0	0.88889				
	253	1	-0.9000000000000001	0.5	0.0	0.0	1	1.05131	0.0	380.0	1	1.10263	1.0				
	254	1	-0.4	0.5	0.0	0.0	1	1.05131	0.0	380.0	1	1.10263	1.0				
	255	1	5.8	-0.5	0.0	0.0	1	1.00202	0.0	63.0	1	1.06754	0.93651				
	256	1	0.0	0.0	0.0	0.0	1	1.04445	0.0	225.0	1	1.08889	1.0				
	257	1	0.0	0.0	0.0	0.0	1	1.03333	0.0	225.0	1	1.08889	0.97778				
	258	1	65.9	4.3	0.0	0.0	1	1.02889	0.0	225.0	1	1.08889	0.96889				
	259	2	0.0	0.0	0.0	0.0	1	1.0	0.0	20.0	1	1.2	0.8				
	260	1	0.0	0.0	0.0	0.0	1	1.01111	0.0	225.0	1	1.08889	0.93333				
	261	1	92.8	34.4	0.0	0.0	1	1.04244	0.0	225.0	1	1.08489	1.0				
	262	2	9.8	1.5	0.0	0.0	1	0.94444	0.0	45.0	1	1.0	0.88889				
	263	1	30.9	1.4	0.0	0.0	1	1.0	0.0	20.0	1	1.2	0.8				
	264	1	195.0	-58.4	0.0	0.0	1	1.04222	0.0	225.0	1	1.08444	1.0				
	265	1	14.6	-4.0	0.0	0.0	1	1.01587	0.0	63.0	1	1.06349	0.96825				
	266	1	0.0	0.0	0.0	0.0	1	1.03333	0.0	225.0	1	1.08889	0.97778				
	267	1	0.0	0.0	0.0	0.0	1	1.04222	0.0	225.0	1	1.08444	1.0				
	268	1	21.6	-4.6	0.0	0.0	1	1.0	0.0	63.0	1	1.06349	0.93651				
	269	1	34.5	5.6	0.0	0.0	1	1.01587	0.0	63.0	1	1.06349	0.96825				
	270	1	155.6	18.6	0.0	0.0	1	1.02	0.0	225.0	1	1.08889	0.95111				
	271	2	0.0	0.0	0.0	0.0	1	1.0	0.0	63.0	1	1.06349	0.93651				
	272	1	76.6	12.4	0.0	0.0	1	1.04445	0.0	225.0	1	1.08889	1.0				
	273	1	89.1	13.200000000000001	0.0	0.0	1	1.03778	0.0	225.0	1	1.08889	0.98667				
	274	2	0.0	0.0	0.0	0.0	1	1.0	0.0	63.0	1	1.06349	0.93651				
	275	2	0.0	0.0	0.0	0.0	1	1.0	0.0	63.0	1	1.06349	0.93651				
	276	1	21.1	-6.0	0.0	0.0	1	1.00601	0.0	63.0	1	1.09138	0.92063				
	277	1	20.3	2.7	0.0	0.0	1	1.00188	0.0	63.0	1	1.06725	0.93651				
	279	1	29.299999999999997	1.8000000000000003	0.0	0.0	1	1.04222	0.0	225.0	1	1.08444	1.0				
	280	1	0.0	0.0	0.0	0.0	1	1.05131	0.0	380.0	1	1.10263	1.0				
	281	1	41.0	2.6	0.0	0.0	1	1.01587	0.0	63.0	1	1.06349	0.96825				
	282	1	108.4	30.599999999999998	0.0	0.0	1	1.04445	0.0	225.0	1	1.08889	1.0				
	283	2	0.0	0.0	0.0	0.0	1	0.98889	0.0	225.0	1	1.08889	0.88889				
	284	1	0.0	0.0	0.0	0.0	1	0.98889	0.0	225.0	1	1.08889	0.88889				
	285	2	0.0	0.0	0.0	0.0	1	1.0	0.0	63.0	1	1.06349	0.93651				
	286	1	274.1	47.6	0.0	80.0	1	1.04222	0.0	225.0	1	1.08444	1.0				
	287	1	0.0	0.0	0.0	0.0	1	1.0	0.0	20.0	1	1.2	0.8				
	288	1	112.4	25.6	0.0	0.0	1	1.0	0.0	63.0	1	1.06349	0.93651				
	289	1	70.1	19.9	0.0	0.0	1	1.04087	0.0	225.0	1	1.09508	0.98667				
	290	1	86.7	14.7	0.0	0.0	1	1.04222	0.0	225.0	1	1.08444	1.0				
	291	2	0.0	0.0	0.0	0.0	1	1.0	0.0	20.0	1	1.2	0.8				
	292	1	0.0	0.0	0.0	0.0	1	1.0	0.0	63.0	1	1.06349	0.93651				
	293	1	0.0	0.0	0.0	0.0	1	1.01111	0.0	225.0	1	1.08889	0.93333				
	294	1	0.0	0.0	0.0	0.0	1	1.05263	0.0	380.0	1	1.10526	1.0				
	295	1	61.5	7.3	0.0	0.0	1	1.0	0.0	63.0	1	1.06349	0.93651				
	296	1	13.200000000000001	3.7000000000000006	0.0	0.0	1	1.0	0.0	63.0	1	1.06349	0.93651				
	297	1	81.6	9.8	0.0	0.0	1	1.05263	0.0	380.0	1	1.10526	1.0				
	298	2	0.0	0.0	0.0	0.0	1	1.0	0.0	20.0	1	1.2	0.8				
	299	1	0.0	0.0	0.0	0.0	1	1.01111	0.0	225.0	1	1.08889	0.93333				
	300	2	9.7	-1.5	0.0	0.0	1	1.0	0.0	63.0	1	1.07937	0.92063				
	301	1	44.1	19.8	0.0	0.0	1	1.04222	0.0	225.0	1	1.08444	1.0				
	302	1	-0.7	-3.3000000000000003	0.0	0.0	1	1.01587	0.0	63.0	1	1.06349	0.96825				
	303	1	10.2	0.7	0.0	0.0	1	1.04222	0.0	225.0	1	1.08444	1.0				
	304	1	14.3	-2.1	0.0	0.0	1	1.01587	0.0	63.0	1	1.06349	0.96825				
	305	2	0.0	0.0	0.0	0.0	1	1.01639	0.0	63.0	1	1.06453	0.96825				
	306	1	79.9	15.4	0.0	0.0	1	1.04553	0.0	225.0	1	1.09106	1.0				
	307	1	19.9	2.8	0.0	0.0	1	1.04222	0.0	225.0	1	1.08444	1.0				
	308	1	1.0	0.3	0.0	0.0	1	1.02667	0.0	150.0	1	1.10667	0.94667				
	309	1	0.0	-7.3	0.0	0.0	1	1.01587	0.0	63.0	1	1.06349	0.96825				
	310	2	0.1	-0.8	0.0	0.0	1	1.00477	0.0	63.0	1	1.08891	0.92063				
	311	1	0.0	0.0	0.0	0.0	1	1.04222	0.0	225.0	1	1.08444	1.0				
	312	1	0.0	0.0	0.0	0.0	1	1.05131	0.0	380.0	1	1.10263	1.0				
	313	2	0.0	0.0	0.0	0.0	1	1.0	0.0	63.0	1	1.07937	0.92063				
	314	2	0.0	0.0	0.0	0.0	1	0.94488	0.0	45.0	1	1.00087	0.88889				
	315	1	0.2	-1.8000000000000003	0.0	0.0	1	1.01587	0.0	63.0	1	1.06349	0.96825				
	316	2	0.0	0.0	0.0	0.0	1	0.9767	0.0	63.0	1	1.37727	0.57614				
	317	1	0.0	0.0	0.0	0.0	1	1.0	0.0	63.0	1	1.07937	0.92063				
	318	1	0.1	1.3	0.0	0.0	1	1.01587	0.0	63.0	1	1.06349	0.96825				
	319	1	15.2	-1.0	0.0	0.0	1	1.01587	0.0	63.0	1	1.06349	0.96825				
	320	1	152.8	2.6	0.0	0.0	1	1.04967	0.0	225.0	1	1.09934	1.0				
	321	1	0.0	0.0	0.0	0.0	1	1.05263	0.0	380.0	1	1.10526	1.0				
	322	1	102.3	16.7	0.0	0.0	1	1.0	0.0	225.0	1	1.08889	0.91111				
	323	1	0.0	0.0	0.0	0.0	1	1.05263	0.0	380.0	1	1.10526	1.0				
	324	1	44.1	13.8	0.0	0.0	1	1.04445	0.0	225.0	1	1.08889	1.0				
	325	1	4.7	1.7000000000000002	0.0	0.0	1	1.03778	0.0	225.0	1	1.08889	0.98667				
	326	2	7.1	3.1	0.0	0.0	1	1.0	0.0	63.0	1	1.07937	0.92063				
	327	1	1.9	-1.1	0.0	0.0	1	1.01587	0.0	63.0	1	1.06349	0.96825				
	328	1	34.5	2.3	0.0	0.0	1	1.01587	0.0	63.0	1	1.06349	0.96825				
	329	1	22.2	10.6	0.0	0.0	1	1.01587	0.0	63.0	1	1.06349	0.96825				
	330	1	41.5	-0.3	0.0	0.0	1	1.01615	0.0	63.0	1	1.06405	0.96825				
	331	1	20.0	3.0	0.0	0.0	1	1.01587	0.0	63.0	1	1.06349	0.96825				
	332	1	3.5000000000000004	0.0	0.0	0.0	1	1.04445	0.0	225.0	1	1.08889	1.0				
	333	1	0.0	0.0	0.0	0.0	1	1.04445	0.0	225.0	1	1.08889	1.0				
	334	1	64.2	16.8	0.0	0.0	1	1.04445	0.0	225.0	1	1.08889	1.0				
	335	1	-26.0	0.9000000000000001	0.0	0.0	1	1.0	0.0	20.0	1	1.2	0.8				
	336	1	0.0	0.0	0.0	0.0	1	1.02333	0.0	150.0	1	1.08	0.96667				
	337	1	42.8	6.7	0.0	0.0	1	1.0	0.0	63.0	1	1.07937	0.92063				
	338	1	-8.9	-19.9	0.0	0.0	1	1.0579	0.0	380.0	1	1.11579	1.0				
	339	1	51.1	21.8	0.0	0.0	1	1.05837	0.0	380.0	1	1.11674	1.0				
	340	1	-16.7	-26.0	0.0	0.0	1	1.0579	0.0	380.0	1	1.11579	1.0				
	341	1	-35.3	-10.2	0.0	0.0	1	1.05794	0.0	380.0	1	1.11587	1.0				
	342	1	93.3	25.0	0.0	0.0	1	1.04445	0.0	225.0	1	1.08889	1.0				
	343	1	0.0	0.0	0.0	0.0	1	1.01587	0.0	63.0	1	1.06349	0.96825				
	344	1	28.499999999999996	-2.4	0.0	0.0	1	1.01587	0.0	63.0	1	1.06349	0.96825				
	345	1	15.7	-2.3	0.0	0.0	1	1.01587	0.0	63.0	1	1.06349	0.96825				
	346	1	5.7	0.7	0.0	0.0	1	1.01587	0.0	63.0	1	1.06349	0.96825				
	348	1	0.0	0.0	0.0	0.0	1	1.04445	0.0	225.0	1	1.08889	1.0				
	349	1	0.0	0.0	0.0	0.0	1	1.05263	0.0	380.0	1	1.10526	1.0				
	350	1	18.6	-1.9	0.0	0.0	1	1.01111	0.0	225.0	1	1.08889	0.93333				
	351	1	-1.5	-1.4	0.0	0.0	1	1.0	0.0	63.0	1	1.06349	0.93651				
	352	1	160.1	26.0	0.0	0.0	1	1.05263	0.0	380.0	1	1.10526	1.0				
	353	1	14.099999999999998	16.8	0.0	0.0	1	1.0	0.0	63.0	1	1.06349	0.93651				
	354	1	28.199999999999996	-4.6	0.0	0.0	1	1.0	0.0	63.0	1	1.07937	0.92063				
	356	1	0.0	0.0	0.0	80.0	1	1.04445	0.0	225.0	1	1.08889	1.0				
	357	1	0.0	0.0	0.0	0.0	1	1.05263	0.0	380.0	1	1.10526	1.0				
	358	1	165.9	70.6	0.0	0.0	1	1.00889	0.0	225.0	1	1.08889	0.92889				
	359	1	90.1	-2.3	0.0	0.0	1	1.05263	0.0	380.0	1	1.10526	1.0				
	360	1	25.8	3.2	0.0	0.0	1	1.01587	0.0	63.0	1	1.06349	0.96825				
	361	1	172.0	23.0	0.0	0.0	1	1.04222	0.0	225.0	1	1.08444	1.0				
	362	1	29.7	10.9	0.0	0.0	1	1.01111	0.0	225.0	1	1.08889	0.93333				
	363	1	0.0	0.0	0.0	0.0	1	1.0	0.0	63.0	1	1.06349	0.93651				
	364	1	0.0	0.0	0.0	0.0	1	1.05263	0.0	380.0	1	1.10526	1.0				
	365	1	308.6	79.4	0.0	0.0	1	1.04222	0.0	225.0	1	1.08444	1.0				
	366	1	0.0	0.0	0.0	0.0	1	1.05131	0.0	380.0	1	1.10263	1.0				
	367	2	43.4	33.1	0.0	0.0	1	1.0	0.0	20.0	1	1.2	0.8				
	368	1	0.0	0.0	0.0	0.0	1	1.03778	0.0	225.0	1	1.08889	0.98667				
	369	1	242.79999999999998	92.1	0.0	0.0	1	1.03778	0.0	225.0	1	1.08889	0.98667				
	370	1	1.9	-0.4	0.0	0.0	1	1.0	0.0	63.0	1	1.06349	0.93651				
	371	2	0.0	0.0	0.0	0.0	1	1.0	0.0	63.0	1	1.06349	0.93651				
	372	1	306.7	50.2	0.0	0.0	1	1.05131	0.0	380.0	1	1.10263	1.0				
	373	1	69.1	41.5	0.0	0.0	1	1.0414	0.0	225.0	1	1.09613	0.98667				
	374	1	1.7000000000000002	0.0	0.0	0.0	1	1.0	0.0	63.0	1	1.06349	0.93651				
	375	1	10.5	-2.0	0.0	0.0	1	1.0	0.0	63.0	1	1.06349	0.93651				
	376	1	20.6	0.5	0.0	0.0	1	1.04445	0.0	225.0	1	1.08889	1.0				
	377	1	0.0	0.0	0.0	0.0	1	1.04445	0.0	225.0	1	1.08889	1.0				
	378	1	16.4	1.7000000000000002	0.0	0.0	1	1.0	0.0	63.0	1	1.06349	0.93651				
	379	1	0.0	0.0	0.0	0.0	1	1.0	0.0	20.0	1	1.2	0.8				
	380	1	0.0	0.0	0.0	0.0	1	1.00314	0.0	63.0	1	1.06977	0.93651				
	381	1	0.0	0.0	0.0	0.0	1	1.01111	0.0	225.0	1	1.08889	0.93333				
	382	1	0.0	0.0	0.0	0.0	1	1.05263	0.0	380.0	1	1.10526	1.0				
	383	1	2.5	0.6	0.0	0.0	1	1.0	0.0	63.0	1	1.06349	0.93651				
	384	1	0.0	0.0	0.0	0.0	1	1.04522	0.0	225.0	1	1.09043	1.0				
	385	1	0.0	0.0	0.0	0.0	1	1.02333	0.0	150.0	1	1.08	0.96667				
	386	1	43.1	1.2	0.0	0.0	1	1.04445	0.0	225.0	1	1.08889	1.0				
	387	1	77.8	14.400000000000002	0.0	0.0	1	1.01111	0.0	225.0	1	1.08889	0.93333				
	388	1	32.2	5.7	0.0	0.0	1	1.04222	0.0	225.0	1	1.08444	1.0				
	389	1	72.3	11.2	0.0	0.0	1	1.04445	0.0	225.0	1	1.08889	1.0				
	391	1	182.8	65.8	0.0	0.0	1	1.04445	0.0	225.0	1	1.08889	1.0				
	392	1	0.0	0.0	0.0	0.0	1	1.05263	0.0	380.0	1	1.10526	1.0				
	393	1	14.7	1.1	0.0	0.0	1	1.00203	0.0	63.0	1	1.06755	0.93651				
	394	1	0.0	0.0	0.0	0.0	1	1.05263	0.0	380.0	1	1.10526	1.0				
	395	1	260.2	52.800000000000004	0.0	0.0	1	1.04222	0.0	225.0	1	1.08444	1.0				
	396	1	0.0	0.0	0.0	0.0	1	1.05263	0.0	380.0	1	1.10526	1.0				
	397	1	59.5	13.3	0.0	0.0	1	1.04445	0.0	225.0	1	1.08889	1.0				
	398	1	0.0	0.0	0.0	0.0	1	1.05263	0.0	380.0	1	1.10526	1.0				
	399	2	9.1	-3.2	0.0	0.0	1	1.01587	0.0	63.0	1	1.06349	0.96825				
	400	1	0.0	0.0	0.0	0.0	1	1.05131	0.0	380.0	1	1.10263	1.0				
	401	1	0.0	0.0	0.0	0.0	1	1.05131	0.0	380.0	1	1.10263	1.0				
	402	1	273.1	28.7	0.0	0.0	1	1.04222	0.0	225.0	1	1.08444	1.0				
	403	1	2.2	-1.7000000000000002	0.0	0.0	1	1.05823	0.0	380.0	1	1.11646	1.0				
	404	1	-21.8	6.7	0.0	0.0	1	1.0589	0.0	380.0	1	1.11779	1.0				
	405	1	79.6	21.6	0.0	0.0	1	0.98889	0.0	225.0	1	1.08889	0.88889				
	406	1	0.0	0.0	0.0	0.0	1	1.01587	0.0	63.0	1	1.06349	0.96825				
	408	1	0.0	0.0	0.0	0.0	1	1.04445	0.0	225.0	1	1.08889	1.0				
	409	1	0.0	0.0	0.0	0.0	1	1.05263	0.0	380.0	1	1.10526	1.0				
	410	1	121.09999999999998	-28.4	0.0	0.0	1	1.04853	0.0	225.0	1	1.09705	1.0				
	411	1	-12.6	-2.4	0.0	0.0	1	1.05131	0.0	380.0	1	1.10263	1.0				
	412	1	34.7	-4.1	0.0	0.0	1	1.0	0.0	63.0	1	1.06349	0.93651				
	413	1	2.5	-5.4	0.0	0.0	1	1.01182	0.0	225.0	1	1.09031	0.93333				
	414	1	0.0	0.0	0.0	0.0	1	1.0	0.0	63.0	1	1.06349	0.93651				
	415	1	149.5	16.2	0.0	0.0	1	1.04445	0.0	225.0	1	1.08889	1.0				
	416	1	56.99999999999999	16.2	0.0	0.0	1	0.98889	0.0	225.0	1	1.08889	0.88889				
	417	1	0.0	0.0	0.0	0.0	1	1.0	0.0	63.0	1	1.06349	0.93651				
	418	2	0.0	0.0	0.0	0.0	1	1.0	0.0	20.0	1	1.2	0.8				
	419	1	0.0	0.0	0.0	0.0	1	1.05263	0.0	380.0	1	1.10526	1.0				
	420	1	3.7000000000000006	0.9000000000000001	0.0	0.0	1	1.01587	0.0	63.0	1	1.06349	0.96825				
	421	1	200.89999999999998	65.2	0.0	80.0	1	1.04498	0.0	225.0	1	1.08996	1.0				
	422	1	16.8	4.2	0.0	0.0	1	1.01587	0.0	63.0	1	1.06349	0.96825				
	423	1	76.2	12.8	0.0	0.0	1	1.04445	0.0	225.0	1	1.08889	1.0				
	424	1	7.9	-8.0	0.0	0.0	1	1.00334	0.0	150.0	1	1.10667	0.9				
	425	1	0.5	-0.5	0.0	0.0	1	1.0	0.0	63.0	1	1.06349	0.93651				
	426	2	-4.0	0.9000000000000001	0.0	0.0	1	1.0	0.0	63.0	1	1.07937	0.92063				
	427	1	0.0	0.2	0.0	0.0	1	1.01587	0.0	63.0	1	1.06349	0.96825				
	428	1	135.6	-20.4	0.0	0.0	1	1.04317	0.0	225.0	1	1.08635	1.0				
	429	1	-5.3	-12.9	0.0	0.0	1	1.03809	0.0	225.0	1	1.08951	0.98667				
	430	1	126.9	17.6	0.0	0.0	1	1.04445	0.0	225.0	1	1.08889	1.0				
	431	1	25.6	18.8	0.0	0.0	1	1.01111	0.0	225.0	1	1.08889	0.93333				
	432	1	13.600000000000001	7.9	0.0	0.0	1	1.01587	0.0	63.0	1	1.06349	0.96825				
	433	1	132.9	-6.2	0.0	0.0	1	1.04222	0.0	225.0	1	1.08444	1.0				
	434	1	48.0	-1.6	0.0	0.0	1	1.04222	0.0	225.0	1	1.08444	1.0				
	435	1	31.1	-0.5	0.0	0.0	1	1.0	0.0	20.0	1	1.2	0.8				
	436	1	35.6	6.5	0.0	0.0	1	1.01111	0.0	225.0	1	1.08889	0.93333				
	437	1	102.90000000000002	23.8	0.0	0.0	1	1.01111	0.0	225.0	1	1.08889	0.93333				
	438	1	25.2	1.9	0.0	0.0	1	1.01587	0.0	63.0	1	1.06349	0.96825				
	439	1	86.3	27.200000000000003	0.0	0.0	1	1.04445	0.0	225.0	1	1.08889	1.0				
	440	1	35.6	15.2	0.0	0.0	1	1.04445	0.0	225.0	1	1.08889	1.0				
	441	1	257.8	47.0	0.0	0.0	1	1.04445	0.0	225.0	1	1.08889	1.0				
	442	1	0.0	0.0	0.0	0.0	1	0.94444	0.0	45.0	1	1.0	0.88889				
	443	1	-3.4000000000000004	7.400000000000001	0.0	0.0	1	0.98889	0.0	225.0	1	1.08889	0.88889				
	444	1	388.0	84.2	0.0	80.0	1	1.0431	0.0	225.0	1	1.08619	1.0				
	445	1	0.0	0.0	0.0	0.0	1	1.04222	0.0	225.0	1	1.08444	1.0				
	446	1	-5.5	3.4000000000000004	0.0	0.0	1	1.05131	0.0	380.0	1	1.10263	1.0				
	447	1	6.9	-1.3	0.0	0.0	1	1.0	0.0	63.0	1	1.07937	0.92063				
	448	1	0.0	0.0	0.0	0.0	1	1.01111	0.0	225.0	1	1.08889	0.93333				
	449	1	53.5	12.3	0.0	0.0	1	1.04445	0.0	225.0	1	1.08889	1.0				
	450	1	149.6	32.1	0.0	80.0	1	1.04445	0.0	225.0	1	1.08889	1.0				
	451	1	59.099999999999994	-2.3	0.0	0.0	1	1.01111	0.0	225.0	1	1.08889	0.93333				
	452	1	0.0	0.0	0.0	0.0	1	1.05263	0.0	380.0	1	1.10526	1.0				
	453	1	0.0	0.0	0.0	0.0	1	1.04222	0.0	225.0	1	1.08444	1.0				
	454	1	0.0	0.0	0.0	0.0	1	1.05131	0.0	380.0	1	1.10263	1.0				
	455	1	169.1	39.0	0.0	0.0	1	1.04445	0.0	225.0	1	1.08889	1.0				
	456	1	11.6	8.5	0.0	0.0	1	1.04445	0.0	225.0	1	1.08889	1.0				
	457	1	138.4	26.6	0.0	0.0	1	1.03897	0.0	225.0	1	1.09127	0.98667				
	458	1	0.0	0.0	0.0	0.0	1	1.01587	0.0	63.0	1	1.06349	0.96825				
	459	1	0.0	0.0	0.0	0.0	1	1.04222	0.0	225.0	1	1.08444	1.0				
	460	1	0.0	0.0	0.0	0.0	1	1.04643	0.0	225.0	1	1.09286	1.0				
	461	2	0.0	0.0	0.0	0.0	1	1.04445	0.0	225.0	1	1.08889	1.0				
	462	1	18.3	3.6000000000000005	0.0	0.0	1	1.0	0.0	63.0	1	1.07937	0.92063				
	463	1	-1.1	0.6	0.0	0.0	1	1.01587	0.0	63.0	1	1.06349	0.96825				
	464	1	0.0	0.0	0.0	0.0	1	1.05131	0.0	380.0	1	1.10263	1.0				
	465	1	13.5	0.6	0.0	0.0	1	1.0	0.0	63.0	1	1.06349	0.93651				
	466	1	25.3	12.4	0.0	0.0	1	1.01111	0.0	225.0	1	1.08889	0.93333				
	467	1	81.9	-16.5	0.0	0.0	1	1.04387	0.0	225.0	1	1.08774	1.0				
	468	1	-0.5	0.7	0.0	0.0	1	1.01587	0.0	63.0	1	1.06349	0.96825				
	469	1	25.3	-3.2	0.0	0.0	1	1.0	0.0	63.0	1	1.06349	0.93651				
	470	1	0.0	0.0	0.0	0.0	1	1.01111	0.0	225.0	1	1.08889	0.93333				
	471	1	0.0	0.0	0.0	0.0	1	1.05263	0.0	380.0	1	1.10526	1.0				