%% MATPOWER Case Format : Version 2
function mpc = pglib_opf_case179_goc
mpc.version = '2';

%%-----  Power Flow Data  -----%%
%% system MVA base
mpc.baseMVA = 100.0;
%% bus data
%    bus_i    type    Pd    Qd    Gs    Bs    area    Vm    Va    baseKV    zone    Vmax    Vmin
mpc.bus = [
	2	1	926.77	-54.77000000000001	0.0	0.0	1	1.003	0.0	1.0	1	1.108	0.898				
	3	1	0.0	0.0	0.0	0.0	1	1.003	0.0	1.0	1	1.108	0.898				
	4	2	46.71	0.0	0.0	0.0	1	1.003	0.0	1.0	1	1.108	0.898				
	5	1	1271.04	-122.37	0.0	0.0	1	1.003	0.0	1.0	1	1.108	0.898				
	6	2	48.57	0.0	0.0	0.0	1	1.003	0.0	1.0	1	1.108	0.898				
	7	1	0.0	0.0	0.0	-112.99999999999999	1	1.003	0.0	1.0	1	1.108	0.898				
	8	1	113.45	-54.21	0.0	-155.0	1	1.003	0.0	1.0	1	1.108	0.898				
	9	2	50.0	0.0	0.0	0.0	1	1.003	0.0	1.0	1	1.108	0.898				
	10	1	67.39	22.91	0.0	0.0	1	1.003	0.0	1.0	1	1.108	0.898				
	11	2	47.87	0.0	0.0	0.0	1	1.003	0.0	1.0	1	1.108	0.898				
	12	1	41.43	65.76	0.0	-190.0	2	1.003	0.0	1.0	1	1.108	0.898				
	13	2	48.55	0.0	0.0	0.0	2	1.003	0.0	1.0	1	1.108	0.898				
	14	1	0.0	0.0	0.0	-391.0	2	1.003	0.0	1.0	1	1.108	0.898				
	15	2	46.55	0.0	0.0	0.0	2	1.003	0.0	1.0	1	1.108	0.898				
	16	1	434.68	215.19999999999996	0.0	-146.0	2	1.003	0.0	1.0	1	1.108	0.898				
	17	1	459.25	4.79	0.0	390.0	1	1.003	0.0	1.0	1	1.108	0.898				
	18	2	51.790000000000006	0.0	0.0	0.0	1	1.003	0.0	1.0	1	1.108	0.898				
	19	1	327.45	-64.08	0.0	-426.99999999999994	2	1.003	0.0	1.0	1	1.108	0.898				
	20	1	0.0	0.0	0.0	0.0	2	1.003	0.0	1.0	1	1.108	0.898				
	21	1	0.0	0.0	0.0	0.0	2	1.003	0.0	1.0	1	1.108	0.898				
	22	1	0.0	0.0	0.0	0.0	2	1.003	0.0	1.0	1	1.108	0.898				
	23	1	0.0	0.0	0.0	0.0	2	1.003	0.0	1.0	1	1.108	0.898				
	24	1	0.0	0.0	0.0	0.0	2	1.003	0.0	1.0	1	1.108	0.898				
	25	1	0.0	0.0	0.0	0.0	2	1.003	0.0	1.0	1	1.108	0.898				
	26	1	0.0	0.0	0.0	0.0	2	1.003	0.0	1.0	1	1.108	0.898				
	27	1	0.0	0.0	0.0	0.0	2	1.003	0.0	1.0	1	1.108	0.898				
	28	1	0.0	0.0	0.0	0.0	1	1.003	0.0	1.0	1	1.108	0.898				
	29	1	0.0	0.0	0.0	0.0	1	1.003	0.0	1.0	1	1.108	0.898				
	30	2	49.3	0.0	0.0	0.0	1	1.003	0.0	1.0	1	1.108	0.898				
	31	1	2376.39	1052.35	0.0	0.0	1	1.003	0.0	1.0	1	1.108	0.898				
	32	1	0.0	0.0	0.0	0.0	1	1.003	0.0	1.0	1	1.108	0.898				
	33	1	0.0	0.0	0.0	0.0	1	1.003	0.0	1.0	1	1.108	0.898				
	34	1	1692.19	703.18	0.0	0.0	1	1.003	0.0	1.0	1	1.108	0.898				
	35	2	45.09	0.0	0.0	0.0	1	1.003	0.0	1.0	1	1.108	0.898				
	36	2	51.16	0.0	0.0	0.0	1	1.003	0.0	1.0	1	1.108	0.898				
	37	1	-843.68	1045.02	0.0	911.9999999999999	2	1.003	0.0	1.0	1	1.108	0.898				
	38	1	0.0	0.0	0.0	0.0	2	1.003	0.0	1.0	1	1.108	0.898				
	39	1	0.0	0.0	0.0	0.0	2	1.003	0.0	1.0	1	1.108	0.898				
	40	2	51.45000000000001	0.0	0.0	0.0	2	1.003	0.0	1.0	1	1.108	0.898				
	41	1	69.79	28.000000000000004	0.0	0.0	2	1.003	0.0	1.0	1	1.108	0.898				
	42	1	0.0	0.0	0.0	0.0	2	1.003	0.0	1.0	1	1.108	0.898				
	43	2	49.01	0.0	0.0	0.0	2	1.003	0.0	1.0	1	1.108	0.898				
	44	1	1098.25	902.5	0.0	430.0	1	1.003	0.0	1.0	1	1.108	0.898				
	45	2	52.83	0.0	0.0	0.0	1	1.003	0.0	1.0	1	1.108	0.898				
	46	1	-35.89	-17.32	0.0	0.0	2	1.003	0.0	1.0	1	1.108	0.898				
	47	2	53.25	0.0	0.0	0.0	2	1.003	0.0	1.0	1	1.108	0.898				
	48	1	55.04	24.01	0.0	0.0	2	1.003	0.0	1.0	1	1.108	0.898				
	49	1	0.0	0.0	0.0	-80.0	2	1.003	0.0	1.0	1	1.108	0.898				
	50	1	172.41	62.09	0.0	0.0	2	1.003	0.0	1.0	1	1.108	0.898				
	51	1	115.97999999999999	-58.77	0.0	0.0	2	1.003	0.0	1.0	1	1.108	0.898				
	52	1	0.0	0.0	0.0	0.0	2	1.003	0.0	1.0	1	1.108	0.898				
	53	1	0.0	0.0	0.0	0.0	2	1.003	0.0	1.0	1	1.108	0.898				
	54	1	74.1	29.03	0.0	0.0	2	1.003	0.0	1.0	1	1.108	0.898				
	55	1	427.39000000000004	126.16000000000001	0.0	0.0	2	1.003	0.0	1.0	1	1.108	0.898				
	56	1	0.0	0.0	0.0	0.0	2	1.003	0.0	1.0	1	1.108	0.898				
	57	1	62.17	24.03	0.0	0.0	2	1.003	0.0	1.0	1	1.108	0.898				
	58	1	59.47	25.47	0.0	0.0	2	1.003	0.0	1.0	1	1.108	0.898				
	59	1	480.82000000000005	-6.570000000000001	0.0	0.0	2	1.003	0.0	1.0	1	1.108	0.898				
	60	1	-1459.73	1687.42	0.0	2146.0	2	1.003	0.0	1.0	1	1.108	0.898				
	61	1	185.63	75.27	0.0	0.0	2	1.003	0.0	1.0	1	1.108	0.898				
	62	1	96.01	18.56	0.0	0.0	2	1.003	0.0	1.0	1	1.108	0.898				
	63	1	-69.23	30.320000000000004	0.0	-108.0	2	1.003	0.0	1.0	1	1.108	0.898				
	64	1	0.0	0.0	0.0	0.0	2	1.003	0.0	1.0	1	1.108	0.898				
	65	2	46.97	0.0	0.0	0.0	1	1.003	0.0	1.0	1	1.108	0.898				
	66	1	774.37	298.97	0.0	0.0	1	1.003	0.0	1.0	1	1.108	0.898				
	67	1	78.5	31.52	0.0	0.0	1	1.003	0.0	1.0	1	1.108	0.898				
	68	1	-35.37	174.17	0.0	576.85	1	1.003	0.0	1.0	1	1.108	0.898				
	69	1	-23.29	20.73	0.0	0.0	1	1.003	0.0	1.0	1	1.108	0.898				
	70	2	51.910000000000004	0.0	0.0	0.0	1	1.003	0.0	1.0	1	1.108	0.898				
	71	1	1486.08	1816.85	0.0	792.0	1	1.003	0.0	1.0	1	1.108	0.898				
	72	1	0.0	0.0	0.0	462.0	1	1.003	0.0	1.0	1	1.108	0.898				
	73	1	-781.91	-53.83	0.0	0.0	1	1.003	0.0	1.0	1	1.108	0.898				
	74	1	0.0	0.0	0.0	0.0	1	1.003	0.0	1.0	1	1.108	0.898				
	75	1	1223.08	413.69999999999993	0.0	0.0	1	1.003	0.0	1.0	1	1.108	0.898				
	76	1	1617.7700000000002	1164.73	0.0	1019.35	1	1.003	0.0	1.0	1	1.108	0.898				
	77	3	54.24	0.0	0.0	0.0	1	1.003	0.0	1.0	1	1.108	0.898				
	78	1	1780.83	538.1	0.0	550.0	1	1.003	0.0	1.0	1	1.108	0.898				
	79	2	53.90999999999999	0.0	0.0	0.0	1	1.003	0.0	1.0	1	1.108	0.898				
	80	1	2289.75	396.38	0.0	1200.0	1	1.003	0.0	1.0	1	1.108	0.898				
	81	1	0.0	0.0	0.0	-220.00000000000003	1	1.003	0.0	1.0	1	1.108	0.898				
	82	1	-30.36	-92.62	0.0	-674.0	1	1.003	0.0	1.0	1	1.108	0.898				
	83	1	-185.65	-127.12	0.0	-110.00000000000001	1	1.003	0.0	1.0	1	1.108	0.898				
	84	1	0.0	0.0	0.0	-220.00000000000003	1	1.003	0.0	1.0	1	1.108	0.898				
	85	1	307.42	-452.74	0.0	-869.9999999999999	1	1.003	0.0	1.0	1	1.108	0.898				
	86	1	0.0	0.0	0.0	0.0	1	1.003	0.0	1.0	1	1.108	0.898				
	87	1	0.0	0.0	0.0	0.0	1	1.003	0.0	1.0	1	1.108	0.898				
	88	1	0.0	0.0	0.0	0.0	1	1.003	0.0	1.0	1	1.108	0.898				
	89	1	0.0	0.0	0.0	0.0	1	1.003	0.0	1.0	1	1.108	0.898				
	90	1	0.0	0.0	0.0	0.0	1	1.003	0.0	1.0	1	1.108	0.898				
	91	1	0.0	0.0	0.0	0.0	1	1.003	0.0	1.0	1	1.108	0.898				
	92	1	0.0	0.0	0.0	0.0	1	1.003	0.0	1.0	1	1.108	0.898				
	93	1	0.0	0.0	0.0	0.0	1	1.003	0.0	1.0	1	1.108	0.898				
	94	1	0.0	0.0	0.0	0.0	1	1.003	0.0	1.0	1	1.108	0.898				
	95	1	0.0	0.0	0.0	0.0	1	1.003	0.0	1.0	1	1.108	0.898				
	96	1	0.0	0.0	0.0	0.0	1	1.003	0.0	1.0	1	1.108	0.898				
	97	1	0.0	0.0	0.0	0.0	1	1.003	0.0	1.0	1	1.108	0.898				
	98	1	0.0	0.0	0.0	0.0	1	1.003	0.0	1.0	1	1.108	0.898				
	99	1	0.0	0.0	0.0	0.0	1	1.003	0.0	1.0	1	1.108	0.898				
	100	1	-19.81	21.24	0.0	0.0	3	1.003	0.0	1.0	1	1.108	0.898				
	101	1	107.66	-82.5	0.0	0.0	3	1.003	0.0	1.0	1	1.108	0.898				
	102	1	23.75	26.25	0.0	0.0	2	1.003	0.0	1.0	1	1.108	0.898				
	103	2	54.620000000000005	0.0	0.0	0.0	2	1.003	0.0	1.0	1	1.108	0.898				
	104	1	167.6	-8.03	0.0	-91.0	2	1.003	0.0	1.0	1	1.108	0.898				
	105	1	14.279999999999998	-0.11	0.0	0.0	3	1.003	0.0	1.0	1	1.108	0.898				
	106	1	3.7800000000000002	0.0	0.0	0.0	3	1.003	0.0	1.0	1	1.108	0.898				
	107	1	131.26	13.819999999999999	0.0	0.0	2	1.003	0.0	1.0	1	1.108	0.898				
	108	1	28.610000000000003	-310.03	0.0	-327.0	2	1.003	0.0	1.0	1	1.108	0.898				
	109	1	427.13	35.78	0.0	-130.0	2	1.003	0.0	1.0	1	1.108	0.898				
	110	1	19.35	21.06	0.0	0.0	2	1.003	0.0	1.0	1	1.108	0.898				
	111	1	-99.3	63.54	0.0	0.0	3	1.003	0.0	1.0	1	1.108	0.898				
	112	2	54.11	0.0	0.0	0.0	3	1.003	0.0	1.0	1	1.108	0.898				
	113	1	75.99	0.0	0.0	-128.0	3	1.003	0.0	1.0	1	1.108	0.898				
	114	1	0.0	0.0	0.0	-91.0	3	1.003	0.0	1.0	1	1.108	0.898				
	115	1	-0.38	115.26	0.0	-91.0	3	1.003	0.0	1.0	1	1.108	0.898				
	116	2	51.07000000000001	0.0	0.0	0.0	3	1.003	0.0	1.0	1	1.108	0.898				
	117	1	438.1600000000001	54.83	0.0	-32.0	3	1.003	0.0	1.0	1	1.108	0.898				
	118	2	54.76	0.0	0.0	0.0	3	1.003	0.0	1.0	1	1.108	0.898				
	119	1	2650.16	3818.43	0.0	1500.0	3	1.003	0.0	1.0	1	1.108	0.898				
	120	1	0.0	0.0	0.0	0.0	3	1.003	0.0	1.0	1	1.108	0.898				
	121	1	0.0	0.0	0.0	0.0	3	1.003	0.0	1.0	1	1.108	0.898				
	122	1	0.0	0.0	0.0	0.0	3	1.003	0.0	1.0	1	1.108	0.898				
	123	1	0.0	0.0	0.0	0.0	3	1.003	0.0	1.0	1	1.108	0.898				
	124	1	0.0	0.0	0.0	0.0	3	1.003	0.0	1.0	1	1.108	0.898				
	125	1	0.0	0.0	0.0	0.0	3	1.003	0.0	1.0	1	1.108	0.898				
	126	1	0.0	0.0	0.0	0.0	3	1.003	0.0	1.0	1	1.108	0.898				
	127	1	0.0	0.0	0.0	0.0	3	1.003	0.0	1.0	1	1.108	0.898				
	128	1	0.0	0.0	0.0	0.0	3	1.003	0.0	1.0	1	1.108	0.898				
	129	1	0.0	0.0	0.0	0.0	3	1.003	0.0	1.0	1	1.108	0.898				
	130	1	0.0	0.0	0.0	0.0	3	1.003	0.0	1.0	1	1.108	0.898				
	131	1	0.0	0.0	0.0	0.0	3	1.003	0.0	1.0	1	1.108	0.898				
	132	1	0.0	0.0	0.0	0.0	2	1.003	0.0	1.0	1	1.108	0.898				
	133	1	0.0	0.0	0.0	0.0	2	1.003	0.0	1.0	1	1.108	0.898				
	134	1	0.0	0.0	0.0	0.0	2	1.003	0.0	1.0	1	1.108	0.898				
	135	1	0.0	0.0	0.0	0.0	2	1.003	0.0	1.0	1	1.108	0.898				
	136	1	414.7200000000001	17.91	0.0	0.0	2	1.003	0.0	1.0	1	1.108	0.898				
	137	1	95.26	17.51	0.0	0.0	2	1.003	0.0	1.0	1	1.108	0.898				
	138	2	46.32	0.0	0.0	0.0	2	1.003	0.0	1.0	1	1.108	0.898				
	139	1	471.1700000000001	-10.81	0.0	-319.0	2	1.003	0.0	1.0	1	1.108	0.898				
	140	2	48.52	0.0	0.0	0.0	2	1.003	0.0	1.0	1	1.108	0.898				
	141	1	1730.2800000000002	609.69	0.0	0.0	2	1.003	0.0	1.0	1	1.108	0.898				
	142	1	107.93000000000002	-26.179999999999996	0.0	0.0	2	1.003	0.0	1.0	1	1.108	0.898				
	143	1	174.36	60.86	0.0	0.0	2	1.003	0.0	1.0	1	1.108	0.898				
	144	2	45.88	0.0	0.0	0.0	2	1.003	0.0	1.0	1	1.108	0.898				
	145	1	1540.95	1238.88	0.0	400.0	2	1.003	0.0	1.0	1	1.108	0.898				
	146	1	0.0	0.0	0.0	0.0	2	1.003	0.0	1.0	1	1.108	0.898				
	147	1	0.0	0.0	0.0	-196.0	2	1.003	0.0	1.0	1	1.108	0.898				
	148	2	53.67999999999999	0.0	0.0	0.0	2	1.003	0.0	1.0	1	1.108	0.898				
	149	2	49.94	0.0	0.0	0.0	2	1.003	0.0	1.0	1	1.108	0.898				
	150	1	1578.86	75.65	0.0	0.0	2	1.003	0.0	1.0	1	1.108	0.898				
	151	1	559.23	78.48	0.0	0.0	2	1.003	0.0	1.0	1	1.108	0.898				
	152	1	191.17	45.01	0.0	0.0	2	1.003	0.0	1.0	1	1.108	0.898				
	153	1	0.0	0.0	0.0	0.0	2	1.003	0.0	1.0	1	1.108	0.898				
	154	1	511.38000000000005	-10.66	0.0	-190.0	2	1.003	0.0	1.0	1	1.108	0.898				
	155	1	210.21999999999997	74.94	0.0	-60.0	1	1.003	0.0	1.0	1	1.108	0.898				
	156	1	16.91	12.04	0.0	0.0	1	1.003	0.0	1.0	1	1.108	0.898				
	157	1	79.39	-8.29	0.0	0.0	1	1.003	0.0	1.0	1	1.108	0.898				
	158	1	53.010000000000005	41.07	0.0	-220.00000000000003	1	1.003	0.0	1.0	1	1.108	0.898				
	159	2	53.7	0.0	0.0	0.0	1	1.003	0.0	1.0	1	1.108	0.898				
	160	1	-29.29	11.72	0.0	0.0	1	1.003	0.0	1.0	1	1.108	0.898				
	161	1	137.66	104.12000000000002	0.0	0.0	1	1.003	0.0	1.0	1	1.108	0.898				
	162	2	47.79	0.0	0.0	0.0	1	1.003	0.0	1.0	1	1.108	0.898				
	163	1	0.0	0.0	0.0	0.0	1	1.003	0.0	1.0	1	1.108	0.898				
	164	1	15.049999999999999	12.06	0.0	-18.0	1	1.003	0.0	1.0	1	1.108	0.898				
	165	1	73.31	70.0	0.0	0.0	1	1.003	0.0	1.0	1	1.108	0.898				
	166	1	171.78	-39.78	0.0	-50.0	1	1.003	0.0	1.0	1	1.108	0.898				
	167	1	95.68	75.76	0.0	0.0	1	1.003	0.0	1.0	1	1.108	0.898				
	168	1	0.0	0.0	0.0	0.0	3	1.003	0.0	1.0	1	1.108	0.898				
	169	1	0.0	0.0	0.0	0.0	3	1.003	0.0	1.0	1	1.108	0.898				
	170	1	0.0	0.0	0.0	0.0	3	1.003	0.0	1.0	1	1.108	0.898				
	171	1	0.0	0.0	0.0	0.0	3	1.003	0.0	1.0	1	1.108	0.898				
	172	1	0.0	0.0	0.0	0.0	3	1.003	0.0	1.0	1	1.108	0.898				
	173	1	0.0	0.0	0.0	0.0	3	1.003	0.0	1.0	1	1.108	0.898				
	174	1	0.0	0.0	0.0	0.0	2	1.003	0.0	1.0	1	1.108	0.898				
	175	1	0.0	0.0	0.0	0.0	2	1.003	0.0	1.0	1	1.108	0.898				
	176	1	0.0	0.0	0.0	0.0	2	1.003	0.0	1.0	1	1.108	0.898				
	177	1	0.0	0.0	0.0	0.0	2	1.003	0.0	1.0	1	1.108	0.898				
	178	1	0.0	0.0	0.0	0.0	2	1.003	0.0	1.0	1	1.108	0.898				
	179	1	0.0	0.0	0.0	0.0	2	1.003	0.0	1.0	1	1.108	0.898				
	180	1	0.0	0.0	0.0	-220.00000000000003	1	1.003	0.0	1.0	1	1.108	0.898				
];

%% generator data
%    bus    Pg    Qg    Qmax    Qmin    Vg    mBase    status    Pmax    Pmin    Pc1    Pc2    Qc1min    Qc1max    Qc2min    Qc2max    ramp_agc    ramp_10    ramp_30    ramp_q    apf
mpc.gen = [
	4	994.0850000000002	-7.9399999999999995	320.28	-336.16	1.003	1600.0	1	1683.12	305.05	0.0	0.0	0.0	0.0	0.0	0.0	0.0	0.0	0.0	0.0	1683.1216				
	6	1084.63	-30.870000000000005	378.83	-440.56999999999994	1.003	2100.0	1	1938.1800000000003	231.07999999999998	0.0	0.0	0.0	0.0	0.0	0.0	0.0	0.0	0.0	0.0	1938.1774				
	9	2652.8	141.81	701.97	-418.35	1.003	4300.0	1	4498.26	807.3399999999999	0.0	0.0	0.0	0.0	0.0	0.0	0.0	0.0	0.0	0.0	4498.2554				
	11	2402.61	-17.94	899.03	-934.91	1.003	4100.0	1	3956.96	848.26	0.0	0.0	0.0	0.0	0.0	0.0	0.0	0.0	0.0	0.0	3956.9636				
	13	1929.025	207.49	697.21	-282.23	1.003	3400.0	1	3299.94	558.11	0.0	0.0	0.0	0.0	0.0	0.0	0.0	0.0	0.0	0.0	3299.9353				
	15	3479.4250000000006	361.045	1405.28	-683.19	1.003	5300.0	1	5393.53	1565.32	0.0	0.0	0.0	0.0	0.0	0.0	0.0	0.0	0.0	0.0	5393.5254				
	18	1305.43	23.19	319.0	-272.62	1.003	2000.0	1	2074.45	536.41	0.0	0.0	0.0	0.0	0.0	0.0	0.0	0.0	0.0	0.0	2074.4534				
	30	6392.915	11.185	4070.83	-4048.46	1.003	8900.0	1	9757.06	3028.77	0.0	0.0	0.0	0.0	0.0	0.0	0.0	0.0	0.0	0.0	9757.0576				
	35	5083.72	1136.34	5544.98	-3272.2999999999997	1.003	9000.0	1	8718.16	1449.28	0.0	0.0	0.0	0.0	0.0	0.0	0.0	0.0	0.0	0.0	8718.1563				
	36	2254.335	129.4	652.92	-394.12	1.003	3300.0	1	3493.62	1015.05	0.0	0.0	0.0	0.0	0.0	0.0	0.0	0.0	0.0	0.0	3493.625				
	40	191.725	48.255	247.18999999999997	-150.68	1.003	400.0	1	362.6	20.85	0.0	0.0	0.0	0.0	0.0	0.0	0.0	0.0	0.0	0.0	362.5961				
	43	400.44500000000005	71.525	311.04	-167.99	1.003	650.0	1	673.96	126.93	0.0	0.0	0.0	0.0	0.0	0.0	0.0	0.0	0.0	0.0	673.957				
	45	2010.625	89.785	765.95	-586.38	1.003	3600.0	1	3528.4	492.8500000000001	0.0	0.0	0.0	0.0	0.0	0.0	0.0	0.0	0.0	0.0	3528.4009				
	47	152.35	0.69	100.88	-99.5	1.003	220.0	1	233.68	71.02	0.0	0.0	0.0	0.0	0.0	0.0	0.0	0.0	0.0	0.0	233.6808				
	65	2932.815	353.385	1553.56	-846.79	1.003	5800.0	1	5459.92	405.71000000000004	0.0	0.0	0.0	0.0	0.0	0.0	0.0	0.0	0.0	0.0	5459.918				
	70	1239.795	-79.99	642.85	-802.8299999999999	1.003	2600.0	1	2377.38	102.21000000000001	0.0	0.0	0.0	0.0	0.0	0.0	0.0	0.0	0.0	0.0	2377.3799				
	77	7403.065	135.05	2448.15	-2178.05	1.003	10400.0	1	11165.05	3641.0800000000004	0.0	0.0	0.0	0.0	0.0	0.0	0.0	0.0	0.0	0.0	11165.0508				
	79	10354.215	2358.21	6030.37	-1313.95	1.003	20000.0	1	18208.22	2500.21	0.0	0.0	0.0	0.0	0.0	0.0	0.0	0.0	0.0	0.0	18208.2246				
	103	737.535	-14.145	327.94	-356.23	1.003	1500.0	1	1359.89	115.18000000000002	0.0	0.0	0.0	0.0	0.0	0.0	0.0	0.0	0.0	0.0	1359.8911				
	112	1328.115	-16.82	421.04999999999995	-454.69	1.003	2100.0	1	2247.11	409.11999999999995	0.0	0.0	0.0	0.0	0.0	0.0	0.0	0.0	0.0	0.0	2247.1069				
	116	805.425	-7.445	275.09	-289.98	1.003	1200.0	1	1298.69	312.16	0.0	0.0	0.0	0.0	0.0	0.0	0.0	0.0	0.0	0.0	1298.6926				
	118	4482.46	1027.675	2735.8	-680.45	1.003	6900.0	1	7386.7699999999995	1578.15	0.0	0.0	0.0	0.0	0.0	0.0	0.0	0.0	0.0	0.0	7386.77				
	138	1178.09	-18.965	307.09	-345.02	1.003	2000.0	1	2043.61	312.57	0.0	0.0	0.0	0.0	0.0	0.0	0.0	0.0	0.0	0.0	2043.6079				
	140	3469.755	594.35	2149.72	-961.0199999999999	1.003	6400.0	1	6145.22	794.29	0.0	0.0	0.0	0.0	0.0	0.0	0.0	0.0	0.0	0.0	6145.2231				
	144	1866.725	262.135	856.6	-332.33	1.003	3400.0	1	3135.12	598.33	0.0	0.0	0.0	0.0	0.0	0.0	0.0	0.0	0.0	0.0	3135.1221				
	148	2041.235	252.83	746.55	-240.89000000000001	1.003	3400.0	1	3402.54	679.93	0.0	0.0	0.0	0.0	0.0	0.0	0.0	0.0	0.0	0.0	3402.5374				
	149	2590.31	-21.69	582.17	-625.55	1.003	4400.0	1	4251.85	928.7699999999999	0.0	0.0	0.0	0.0	0.0	0.0	0.0	0.0	0.0	0.0	4251.854				
	159	2214.085	697.35	10604.58	-9209.88	1.003	3300.0	1	3483.05	945.12	0.0	0.0	0.0	0.0	0.0	0.0	0.0	0.0	0.0	0.0	3483.0479				
	162	501.62500000000006	-587.665	9359.49	-10534.82	1.003	900.0	1	839.66	163.59	0.0	0.0	0.0	0.0	0.0	0.0	0.0	0.0	0.0	0.0	839.6633				
];

%% branch data
%    f_bus    t_bus    r    x    b    rateA    rateB    rateC    ratio    angle    status    angmin    angmax
mpc.branch = [
	2	3	1.6672616608176318e-5	0.014590844246031071	0.01794329248372272	2196.0	2196.0	2196.0	0	0	1	-29.999999999999996	29.999999999999996								
	2	4	2.3440871036628027e-5	0.017300764614699298	0.012151581519144163	1853.0	1853.0	1853.0	0.9545	0.0	1	-29.999999999999996	29.999999999999996								
	3	8	0.001768021214391662	0.019635900344319706	2.5751737357096296	1605.9999999999998	1605.9999999999998	1605.9999999999998	0	0	1	-29.999999999999996	29.999999999999996								
	5	6	1.200277913493615e-5	0.012379968123659607	0.05320164150455225	2589.0	2589.0	2589.0	0	0	1	-29.999999999999996	29.999999999999996								
	5	11	1.7608652851487268e-5	0.01499483149011364	0.044165722515578584	2137.0	2137.0	2137.0	0	0	1	-29.999999999999996	29.999999999999996								
	17	5	0.008656609240480501	0.09746437145521894	2.0503039086094503	291.0	291.0	291.0	0	0	1	-29.999999999999996	29.999999999999996								
	5	160	0.008157280960948067	0.13769804489290305	2.4467772004838064	234.0	234.0	234.0	0	0	1	-29.999999999999996	29.999999999999996								
	7	8	9.479488543241806e-6	0.01100198668584757	0.012146035950006646	2914.0	2914.0	2914.0	1.063	0.0	1	-29.999999999999996	29.999999999999996								
	7	8	9.475435305059934e-6	0.01099963432226446	0.04489908287246284	2914.0	2914.0	2914.0	1.063	0.0	1	-29.999999999999996	29.999999999999996								
	7	28	1.3036270886735897e-6	0.0040799560913429	0.015068370992635399	5501.81	7856.0	7856.0	0	0	1	-29.999999999999996	29.999999999999996								
	8	9	2.725422157564909e-6	0.005899234608299313	0.012146666715445769	5432.0	5432.0	5432.0	0	0	1	-29.999999999999996	29.999999999999996								
	8	10	0.0002846625201079998	0.014029795045755793	0.02386103505364255	2322.0	2322.0	2322.0	0	0	1	-29.999999999999996	29.999999999999996								
	8	10	0.0002754931904752606	0.013204673151223872	0.012154220870161936	2306.0	2306.0	2306.0	0	0	1	-29.999999999999996	29.999999999999996								
	8	17	0.0005000135140460504	0.005300143247610941	0.07813582824951255	2202.27	6021.0	6021.0	0	0	1	-29.999999999999996	29.999999999999996								
	163	8	0.004698829322890284	0.042681032466685295	0.6944951438201747	731.0	731.0	731.0	0	0	1	-29.999999999999996	29.999999999999996								
	12	13	3.4743034104419918e-6	0.006660588995144413	0.01214527962768039	4813.0	4813.0	4813.0	1.08	0.0	1	-29.999999999999996	29.999999999999996								
	12	20	3.1483610013218036e-6	0.00634046386474521	0.012144816083651084	5055.0	5055.0	5055.0	0	0	1	-29.999999999999996	29.999999999999996								
	12	22	1.1057323488064766e-5	0.011882385630720253	0.01214764376673495	2698.0	2698.0	2698.0	0	0	1	-29.999999999999996	29.999999999999996								
	12	139	0.0028085299597737094	0.02116427928895042	0.8834155362341246	1506.0	1506.0	1506.0	0	0	1	-29.999999999999996	29.999999999999996								
	21	14	3.148797604075401e-6	0.0063409034851273725	0.012149802902834036	5055.0	5055.0	5055.0	0	0	1	-29.999999999999996	29.999999999999996								
	14	24	5.34392586118799e-6	0.008260549624560876	0.01214913994911558	3879.9999999999995	3879.9999999999995	3879.9999999999995	0	0	1	-29.999999999999996	29.999999999999996								
	14	26	2.5253524248402085e-5	0.01795723189489039	0.012158660209211499	1786.0	1786.0	1786.0	0	0	1	-29.999999999999996	29.999999999999996								
	29	14	2.9326410305978296e-6	0.00611939132663451	0.06801861621668069	5237.0	5237.0	5237.0	0	0	1	-29.999999999999996	29.999999999999996								
	16	15	6.013977933904255e-5	0.004961531719836914	0.3944498725127089	6473.999999999999	6473.999999999999	6473.999999999999	1.1061	0.0	1	-29.999999999999996	29.999999999999996								
	16	19	0.00040030240588170965	0.009607257698486997	0.936530708236792	3336.0	3336.0	3336.0	0	0	1	-29.999999999999996	29.999999999999996								
	16	19	0.0003940879190983014	0.009458110017666672	0.9969752009490244	3336.0	3336.0	3336.0	0	0	1	-29.999999999999996	29.999999999999996								
	16	136	0.002585203348909429	0.02961505116860029	2.2830754680618686	1077.0	1077.0	1077.0	0	0	1	-29.999999999999996	29.999999999999996								
	16	136	0.0026244624859757325	0.030064788063884976	2.1728297840273765	1077.0	1077.0	1077.0	0	0	1	-29.999999999999996	29.999999999999996								
	17	18	2.816401134592533e-6	0.005996889281026929	0.01214897912045366	5342.0	5342.0	5342.0	1.0435	0.0	1	-29.999999999999996	29.999999999999996								
	23	19	1.1054908046594806e-5	0.011881087723962569	0.012145136354344322	2698.0	2698.0	2698.0	0	0	1	-29.999999999999996	29.999999999999996								
	25	19	5.344903863951917e-6	0.008261305479675372	0.012146529479593143	3879.9999999999995	3879.9999999999995	3879.9999999999995	0	0	1	-29.999999999999996	29.999999999999996								
	20	21	0.0007768836875268164	0.018201274688418628	1.4774782643523012	1775.0	1775.0	1775.0	0	0	1	-29.999999999999996	29.999999999999996								
	22	23	0.002333067495573236	0.05677775279704753	4.82539377130351	546.0	546.0	546.0	0	0	1	-29.999999999999996	29.999999999999996								
	24	25	0.00175187469076378	0.04153606456373308	3.0124636179111186	755.0	755.0	755.0	0	0	1	-29.999999999999996	29.999999999999996								
	26	27	0.00231515472099604	0.05546304555730329	3.980227489574784	646.0	646.0	646.0	0	0	1	-29.999999999999996	29.999999999999996								
	27	139	2.5247187076881595e-5	0.017954978645555536	0.03982735436456028	1786.0	1786.0	1786.0	0	0	1	-29.999999999999996	29.999999999999996								
	28	29	0.0017612690433549709	0.041683363376878405	3.3012598082019733	765.0	765.0	765.0	0	0	1	-29.999999999999996	29.999999999999996								
	31	30	1.7621397384678498e-7	0.001500026711780195	0.012159769630590237	21366.0	21366.0	21366.0	1.05	0.0	1	-29.999999999999996	29.999999999999996								
	31	32	0.00330998217715503	0.06619963276203668	4.548260050989736	458.0	458.0	458.0	0	0	1	-29.999999999999996	29.999999999999996								
	31	80	0.0008619931687207702	0.024821247778349587	3.359148836533084	1341.0	1341.0	1341.0	0	0	1	-29.999999999999996	29.999999999999996								
	32	33	7.833991841579524e-6	0.010001617638939217	0.1275571543120916	3204.9999999999995	3204.9999999999995	3204.9999999999995	1.1	0.0	1	-29.999999999999996	29.999999999999996								
	33	34	0.0020114212532828866	0.02011421246535183	0.7590427149843667	855.66	1595.0	1595.0	0	0	1	-29.999999999999996	29.999999999999996								
	34	35	3.1323563319049766e-7	0.001999928172959312	0.018433645390473742	16025.0	16025.0	16025.0	0	0	1	-29.999999999999996	29.999999999999996								
	85	36	1.6585514215830248e-6	0.0046019645140650735	0.012165868907344715	6968.000000000001	6968.000000000001	6968.000000000001	0	0	1	-29.999999999999996	29.999999999999996								
	37	38	0.0007408148226303639	0.01863049134660687	1.1338576357292498	1721.0	1721.0	1721.0	0	0	1	-29.999999999999996	29.999999999999996								
	37	56	0.0008270741901293642	0.016823899225067617	1.201654558302369	1920.0	1920.0	1920.0	0	0	1	-29.999999999999996	29.999999999999996								
	37	64	1.9799322182037732e-7	0.0015900251040892812	0.09561221017253861	5755.18	20157.0	20157.0	0	0	1	-29.999999999999996	29.999999999999996								
	37	64	1.9793201635850548e-7	0.0015897793236008997	0.057868643305912314	5757.14	20157.0	20157.0	0	0	1	-29.999999999999996	29.999999999999996								
	38	48	0.0001307023671335451	0.006967441489977678	0.013829469243765867	4624.0	4624.0	4624.0	1.05	0.0	1	-29.999999999999996	29.999999999999996								
	39	40	0.0005068096580424444	0.024124136812039357	0.012149111644454182	1347.0	1347.0	1347.0	0	0	1	-29.999999999999996	29.999999999999996								
	39	46	0.0022918146387886688	0.03469869501330589	0.18212397055372512	892.46	956.0	956.0	0	0	1	-29.999999999999996	29.999999999999996								
	39	48	0.0029102413655838766	0.03813419637907057	0.012160963253633462	841.0	841.0	841.0	0	0	1	-29.999999999999996	29.999999999999996								
	39	59	0.003306391953973738	0.05004528925789955	0.2878811042117393	684.0	684.0	684.0	0	0	1	-29.999999999999996	29.999999999999996								
	39	60	0.0022185832888960222	0.03359288427002571	0.0875511221952179	832.1	935.0	935.0	0	0	1	-29.999999999999996	29.999999999999996								
	55	41	0.00046840852225123446	0.007205518324570693	0.012147597791612246	754.41	4424.0	4424.0	0	0	1	-29.999999999999996	29.999999999999996								
	41	58	0.0003491638823301515	0.005347195452286803	0.012147421449147433	822.5799999999999	5967.0	5967.0	0	0	1	-29.999999999999996	29.999999999999996								
	42	43	0.0005897297415081046	0.025775253795791635	0.05418705817069017	1264.0	1264.0	1264.0	1.0491	0.0	1	-29.999999999999996	29.999999999999996								
	50	42	0.002100675024345646	0.032675044419568804	0.024113600637305495	761.15	935.0	935.0	0	0	1	-29.999999999999996	29.999999999999996								
	50	42	0.0024432098313675278	0.037664439527033355	0.06847935971362784	872.0000000000001	872.0000000000001	872.0000000000001	0	0	1	-29.999999999999996	29.999999999999996								
	57	42	0.0019843519501613394	0.03034775015541487	0.034262652137780146	768.89	1041.0	1041.0	0	0	1	-29.999999999999996	29.999999999999996								
	42	58	0.0027803543552985597	0.042506768210880085	0.07430778348866797	745.0	745.0	745.0	0	0	1	-29.999999999999996	29.999999999999996								
	44	45	2.1175999892131073e-6	0.0051999689486013625	0.01214764013466944	6164.0	6164.0	6164.0	1.025	0.0	1	-29.999999999999996	29.999999999999996								
	44	160	0.001800091112918241	0.024501239919620506	0.37980268647307136	1305.0	1305.0	1305.0	0	0	1	-29.999999999999996	29.999999999999996								
	44	160	0.001802537320913825	0.024534535527499114	0.369032183152341	1305.0	1305.0	1305.0	0	0	1	-29.999999999999996	29.999999999999996								
	48	46	0.0002898496366540972	0.0043377497333422785	0.012152272410900668	841.15	7369.0	7369.0	0	0	1	-29.999999999999996	29.999999999999996								
	48	47	0.0045039154904262906	0.10355389089934547	0.020164061668498785	280.0	280.0	280.0	1.0478	0.0	1	-29.999999999999996	29.999999999999996								
	49	48	0.00026467916421121047	0.014109434746637284	0.012147617546543157	2312.0	2312.0	2312.0	1.05	0.0	1	-29.999999999999996	29.999999999999996								
	48	55	0.0022868023818361435	0.015807895925684427	0.01214829392671158	855.66	2004.0	2004.0	0	0	1	-29.999999999999996	29.999999999999996								
	48	55	0.0022777231047887655	0.015745133936497693	0.012154104699349993	905.33	2004.0	2004.0	0	0	1	-29.999999999999996	29.999999999999996								
	48	59	0.0014110200276674259	0.00967699550555641	0.04530251671070391	772.89	3279.9999999999995	3279.9999999999995	0	0	1	-29.999999999999996	29.999999999999996								
	48	59	0.0014108134777893787	0.009675578954266677	0.0349612641339709	912.29	3279.9999999999995	3279.9999999999995	0	0	1	-29.999999999999996	29.999999999999996								
	48	59	0.0016078042493859162	0.009696757302727729	0.018761369510905623	763.48	3257.0	3257.0	0	0	1	-29.999999999999996	29.999999999999996								
	48	59	0.0016109109554337487	0.00971549402055348	0.012146774190861975	911.69	3257.0	3257.0	0	0	1	-29.999999999999996	29.999999999999996								
	48	60	0.00026958700523129647	0.003923988630727719	0.01216046550603192	837.06	8136.0	8136.0	0	0	1	-29.999999999999996	29.999999999999996								
	48	60	0.00027017714052576596	0.003932578377785019	0.04593962343171243	783.45	8136.0	8136.0	0	0	1	-29.999999999999996	29.999999999999996								
	48	60	0.0002697158274897798	0.003925863710266425	0.0788174097537325	804.85	8136.0	8136.0	0	0	1	-29.999999999999996	29.999999999999996								
	48	62	0.001380334261265956	0.011162703149079582	0.027941518297646507	758.56	2851.0	2851.0	0	0	1	-29.999999999999996	29.999999999999996								
	48	62	0.0013798805853120404	0.011159034291372643	0.012148169793062385	759.88	2851.0	2851.0	0	0	1	-29.999999999999996	29.999999999999996								
	64	49	0.0008192526422618211	0.018596047650195357	1.6812231248486267	1700.0	1700.0	1700.0	0	0	1	-29.999999999999996	29.999999999999996								
	50	57	0.00037019236410552924	0.0036619028445956953	0.012153622153127366	880.09	8713.0	8713.0	0	0	1	-29.999999999999996	29.999999999999996								
	50	58	0.0005523323080691965	0.005884849680562426	0.012165227748950501	835.5	5446.0	5446.0	0	0	1	-29.999999999999996	29.999999999999996								
	52	51	0.0006052769661632196	0.01529606686588331	0.1432870616284742	2148.0	2148.0	2148.0	1.0017	0.0	1	-29.999999999999996	29.999999999999996								
	53	51	0.0005901531427507949	0.014913869919118737	0.02073533303109856	2148.0	2148.0	2148.0	1.0017	0.0	1	-29.999999999999996	29.999999999999996								
	54	51	0.0002960565043119626	0.013125171305552493	0.1548199057882458	2410.0	2410.0	2410.0	0	0	1	-29.999999999999996	29.999999999999996								
	54	51	0.00029886033056606646	0.013349094352900086	0.043726882146767725	2392.0	2392.0	2392.0	0	0	1	-29.999999999999996	29.999999999999996								
	52	63	0.01042173909711321	0.076994247963578	0.38754282577604776	401.99999999999994	401.99999999999994	401.99999999999994	0	0	1	-29.999999999999996	29.999999999999996								
	53	63	0.010190339952216972	0.07528470582313683	0.2956729149814801	401.99999999999994	401.99999999999994	401.99999999999994	0	0	1	-29.999999999999996	29.999999999999996								
	57	54	0.000729472986050821	0.010242600129287226	0.01214946013488383	765.61	3119.0	3119.0	0	0	1	-29.999999999999996	29.999999999999996								
	57	54	0.0007308342561586138	0.010261713853304695	0.057061330834965986	898.03	3119.0	3119.0	0	0	1	-29.999999999999996	29.999999999999996								
	56	55	0.00012460322291416652	0.013284618046391323	0.012163426832376006	2313.0	2313.0	2313.0	1.0106	0.0	1	-29.999999999999996	29.999999999999996								
	56	55	0.0001353581862899916	0.014431261865166538	0.01215530555495317	2313.0	2313.0	2313.0	1.0106	0.0	1	-29.999999999999996	29.999999999999996								
	55	58	0.001184840221425165	0.012386060785308187	0.01696357203558208	856.67	2565.0	2565.0	0	0	1	-29.999999999999996	29.999999999999996								
	55	58	0.001195402496286098	0.012496476498517031	0.03947468534885861	852.17	2565.0	2565.0	0	0	1	-29.999999999999996	29.999999999999996								
	62	55	0.0012820181108312478	0.009805435390212641	0.012164096547896408	868.54	3246.0	3246.0	0	0	1	-29.999999999999996	29.999999999999996								
	57	58	0.0010974539104571688	0.0118624790708154	0.10564836394409408	908.69	2684.0	2684.0	0	0	1	-29.999999999999996	29.999999999999996								
	60	61	1.0356936036223375e-7	0.0011499910715126885	0.06548342660983661	27869.0	27869.0	27869.0	1.0133	0.0	1	-29.999999999999996	29.999999999999996								
	137	61	0.0013522467187471045	0.025499509049829932	0.20570467899486441	848.66	1213.0	1213.0	0	0	1	-29.999999999999996	29.999999999999996								