%% MATPOWER Case Format : Version 2
function mpc = pglib_opf_case30_as
mpc.version = '2';

%%-----  Power Flow Data  -----%%
%% system MVA base
mpc.baseMVA = 100.0;
%% bus data
%    bus_i    type    Pd    Qd    Gs    Bs    area    Vm    Va    baseKV    zone    Vmax    Vmin
mpc.bus = [
	1	3	0.0	0.0	0.0	0.0	1	1.0	0.0	135.0	1	1.05	0.95				
	2	2	21.7	12.7	0.0	0.0	1	1.025	0.0	135.0	1	1.1	0.95				
	3	1	2.4	1.2	0.0	0.0	1	1.0	0.0	135.0	1	1.05	0.95				
	4	1	7.6	1.6	0.0	0.0	1	1.0	0.0	135.0	1	1.05	0.95				
	5	2	94.2	19.0	0.0	0.0	1	1.0	0.0	135.0	1	1.05	0.95				
	6	1	0.0	0.0	0.0	0.0	1	1.0	0.0	135.0	1	1.05	0.95				
	7	1	22.8	10.9	0.0	0.0	1	1.0	0.0	135.0	1	1.05	0.95				
	8	2	30.0	30.0	0.0	0.0	1	1.0	0.0	135.0	1	1.05	0.95				
	9	1	0.0	0.0	0.0	0.0	1	1.0	0.0	135.0	1	1.05	0.95				
	10	1	5.8	2.0	0.0	5.26	1	1.0	0.0	135.0	1	1.05	0.95				
	11	2	0.0	0.0	0.0	0.0	1	1.0	0.0	135.0	1	1.05	0.95				
	12	1	11.2	7.5	0.0	0.0	1	1.0	0.0	135.0	1	1.05	0.95				
	13	2	0.0	0.0	0.0	0.0	1	1.025	0.0	135.0	1	1.1	0.95				
	14	1	6.2	1.6	0.0	0.0	1	1.0	0.0	135.0	1	1.05	0.95				
	15	1	8.2	2.5	0.0	0.0	1	1.0	0.0	135.0	1	1.05	0.95				
	16	1	3.5000000000000004	1.8000000000000003	0.0	0.0	1	1.0	0.0	135.0	1	1.05	0.95				
	17	1	9.0	5.8	0.0	0.0	1	1.0	0.0	135.0	1	1.05	0.95				
	18	1	3.2	0.9000000000000001	0.0	0.0	1	1.0	0.0	135.0	1	1.05	0.95				
	19	1	9.5	3.4000000000000004	0.0	0.0	1	1.0	0.0	135.0	1	1.05	0.95				
	20	1	2.2	0.7	0.0	0.0	1	1.0	0.0	135.0	1	1.05	0.95				
	21	1	17.5	11.2	0.0	0.0	1	1.0	0.0	135.0	1	1.05	0.95				
	22	1	0.0	0.0	0.0	0.0	1	1.025	0.0	135.0	1	1.1	0.95				
	23	1	3.2	1.6	0.0	0.0	1	1.025	0.0	135.0	1	1.1	0.95				
	24	1	8.7	6.7	0.0	25.0	1	1.0	0.0	135.0	1	1.05	0.95				
	25	1	0.0	0.0	0.0	0.0	1	1.0	0.0	135.0	1	1.05	0.95				
	26	1	3.5000000000000004	2.3	0.0	0.0	1	1.0	0.0	135.0	1	1.05	0.95				
	27	1	0.0	0.0	0.0	0.0	1	1.025	0.0	135.0	1	1.1	0.95				
	28	1	0.0	0.0	0.0	0.0	1	1.0	0.0	135.0	1	1.05	0.95				
	29	1	2.4	0.9000000000000001	0.0	0.0	1	1.0	0.0	135.0	1	1.05	0.95				
	30	1	10.6	1.9	0.0	0.0	1	1.0	0.0	135.0	1	1.05	0.95				
];

%% generator data
%    bus    Pg    Qg    Qmax    Qmin    Vg    mBase    status    Pmax    Pmin    Pc1    Pc2    Qc1min    Qc1max    Qc2min    Qc2max    ramp_agc    ramp_10    ramp_30    ramp_q    apf
mpc.gen = [
	1	125.0	114.99999999999999	250.0	-20.0	1.0	100.0	1	200.0	50.0															
	2	50.0	40.0	100.0	-20.0	1.025	100.0	1	80.0	20.0															
	5	32.5	32.5	80.0	-15.0	1.0	100.0	1	50.0	15.0															
	8	22.5	22.5	60.0	-15.0	1.0	100.0	1	35.0	10.0															
	11	20.0	20.0	50.0	-10.0	1.0	100.0	1	30.0	10.0															
	13	26.0	22.5	60.0	-15.0	1.025	100.0	1	40.0	12.0															
];

%% branch data
%    f_bus    t_bus    r    x    b    rateA    rateB    rateC    ratio    angle    status    angmin    angmax
mpc.branch = [
	1	2	0.019230484213672353	0.05759129386790284	0.17691240812964507	130.0	130.0	130.0	0	0	1	-29.999999999999996	29.999999999999996								
	1	3	0.05122826902159341	0.20989989844131007	0.0017027943215053925	130.0	130.0	130.0	0	0	1	-29.999999999999996	29.999999999999996								
	2	4	0.05739766758472739	0.17491183952092323	0.08035220655169155	65.0	65.0	65.0	0	0	1	-29.999999999999996	29.999999999999996								
	3	4	0.013105860981002155	0.03762970690689964	0.011670789476376255	130.0	130.0	130.0	0	0	1	-29.999999999999996	29.999999999999996								
	2	5	0.04578087656632798	0.19233787766032767	0.032764281149200304	130.0	130.0	130.0	0	0	1	-29.999999999999996	29.999999999999996								
	2	6	0.05885186647711662	0.1785814811544607	0.14910605794080303	65.0	65.0	65.0	0	0	1	-29.999999999999996	29.999999999999996								
	4	6	0.011861796837257988	0.04126709151734131	0.05339539625968446	90.0	90.0	90.0	0	0	1	-29.999999999999996	29.999999999999996								
	5	7	0.046016717175891585	0.1160421563437089	0.014860994449680703	70.0	70.0	70.0	0	0	1	-29.999999999999996	29.999999999999996								
	6	7	0.02705384896901896	0.0830867271690482	0.1020991787691356	130.0	130.0	130.0	0	0	1	-29.999999999999996	29.999999999999996								
	6	8	0.011985490292374243	0.041949216021960306	0.0017029212759854758	32.0	32.0	32.0	0	0	1	-29.999999999999996	29.999999999999996								
	6	9	0.0023390200935617935	0.209471690794359	0.0017028158085194125	65.0	65.0	65.0	0	0	1	-29.999999999999996	29.999999999999996								
	6	10	0.017080624403446307	0.5658346328138247	0.0017033547074810297	32.0	32.0	32.0	0	0	1	-29.999999999999996	29.999999999999996								
	9	11	0.002305491142299619	0.20796510945800162	0.0017027504821535003	65.0	65.0	65.0	0	0	1	-29.999999999999996	29.999999999999996								
	9	10	0.0006512532680152259	0.11053577370303178	0.07315583140003902	65.0	65.0	65.0	0	0	1	-29.999999999999996	29.999999999999996								
	4	12	0.003488997780900196	0.25582642186859544	0.0017040168850602354	65.0	65.0	65.0	0	0	1	-29.999999999999996	29.999999999999996								
	12	13	0.00104134438008359	0.13977212609087244	0.11835300894429404	65.0	65.0	65.0	0	0	1	-29.999999999999996	29.999999999999996								
	12	14	0.12323505813115714	0.25618075833303905	0.011799612098366689	32.0	32.0	32.0	0	0	1	-29.999999999999996	29.999999999999996								
	12	15	0.06629001228711522	0.13057730510232796	0.029784031824041244	32.0	32.0	32.0	0	0	1	-29.999999999999996	29.999999999999996								
	12	16	0.10132618729995387	0.21305305207433625	0.001706591488006294	32.0	32.0	32.0	0	0	1	-29.999999999999996	29.999999999999996								
	14	15	0.22098024272278838	0.19968214692744324	0.16041070011735684	16.0	16.0	16.0	0	0	1	-29.999999999999996	29.999999999999996								
	16	17	0.0779689895517629	0.1828107861628033	0.001708421189406603	16.0	16.0	16.0	0	0	1	-29.999999999999996	29.999999999999996								
	15	18	0.1069295052672603	0.21835604584163035	0.001702771175650961	16.0	16.0	16.0	0	0	1	-29.999999999999996	29.999999999999996								
	18	19	0.06375041165836139	0.12889754594508815	0.01914731237847166	16.0	16.0	16.0	0	0	1	-29.999999999999996	29.999999999999996								
	19	20	0.03391218667382836	0.06782437334490195	0.0017028436081643309	32.0	32.0	32.0	0	0	1	-29.999999999999996	29.999999999999996								
	10	20	0.09356896886576399	0.20893071023110704	0.08775823503382223	32.0	32.0	32.0	0	0	1	-29.999999999999996	29.999999999999996								
	10	17	0.03240929305377853	0.08452423650548588	0.020063627587996045	32.0	32.0	32.0	0	0	1	-29.999999999999996	29.999999999999996								
	10	21	0.034772402686214794	0.07484060233704243	0.001702780881195124	32.0	32.0	32.0	0	0	1	-29.999999999999996	29.999999999999996								
	10	22	0.0717822894617539	0.14800777428213666	0.0017029464066056527	32.0	32.0	32.0	0	0	1	-29.999999999999996	29.999999999999996								
	21	22	0.0116199818593371	0.0236406527482031	0.02608405369556528	32.0	32.0	32.0	0	0	1	-29.999999999999996	29.999999999999996								
	15	23	0.10100878897387983	0.20403775354262324	0.0017027782784564645	16.0	16.0	16.0	0	0	1	-29.999999999999996	29.999999999999996								
	22	24	0.11499531926590703	0.1789927143601148	0.0017027921013447194	16.0	16.0	16.0	0	0	1	-29.999999999999996	29.999999999999996								
	23	24	0.13282993082570418	0.27169758547218553	0.08629177799035717	16.0	16.0	16.0	0	0	1	-29.999999999999996	29.999999999999996								
	24	25	0.18543333853415858	0.32384432374023814	0.03413879558144083	16.0	16.0	16.0	0	0	1	-29.999999999999996	29.999999999999996								
	25	26	0.24954314399653688	0.3727452621452286	0.0017028355902194516	16.0	16.0	16.0	0	0	1	-29.999999999999996	29.999999999999996								
	25	27	0.10970205493700518	0.20946769304374632	0.0017029271619476624	16.0	16.0	16.0	0	0	1	-29.999999999999996	29.999999999999996								
	28	27	0.008052759724148689	0.3886105469262274	0.0017028412181076728	65.0	65.0	65.0	0	0	1	-29.999999999999996	29.999999999999996								
	27	29	0.2052925579103171	0.3878889868442219	0.0025995374921049027	16.0	16.0	16.0	0	0	1	-29.999999999999996	29.999999999999996								
	27	30	0.3163108665954713	0.5953796367037936	0.0017027607981521284	16.0	16.0	16.0	0	0	1	-29.999999999999996	29.999999999999996								
	29	30	0.24709025988977038	0.4668862639780575	0.0017032148251302714	16.0	16.0	16.0	0	0	1	-29.999999999999996	29.999999999999996								
	8	28	0.061239371441423926	0.19257663964865745	0.0017028236725275636	32.0	32.0	32.0	0	0	1	-29.999999999999996	29.999999999999996								
	6	28	0.01694496415092328	0.0600593699745008	0.045269105747318406	32.0	32.0	32.0	0	0	1	-29.999999999999996	29.999999999999996								
];

%%-----  OPF Data  -----%%
%% cost data
%    1    startup    shutdown    n    x1    y1    ...    xn    yn
%    2    startup    shutdown    n    c(n-1)    ...    c0
mpc.gencost = [
	2	0.0	0.0	3	0.0037500000000000003	2.0	0.0
	2	0.0	0.0	3	0.017500000000000005	1.75	0.0
	2	0.0	0.0	3	0.0625	1.0	0.0
	2	0.0	0.0	3	0.00834	3.25	0.0
	2	0.0	0.0	3	0.025	3.0	0.0
	2	0.0	0.0	3	0.025	3.0	0.0
];

