%% MATPOWER Case Format : Version 2
function mpc = pglib_opf_case4661_sdet
mpc.version = '2';

%%-----  Power Flow Data  -----%%
%% system MVA base
mpc.baseMVA = 100.0;
%% bus data
%    bus_i    type    Pd    Qd    Gs    Bs    area    Vm    Va    baseKV    zone    Vmax    Vmin
mpc.bus = [
	1	2	0.0	0.0	0.0	0.0	1	1.0	0.0	345.0	1	1.1	0.9				
	2	2	0.0	0.0	0.0	0.0	1	1.0	0.0	345.0	1	1.1	0.9				
	3	2	0.0	0.0	0.0	0.0	1	1.0	0.0	345.0	1	1.1	0.9				
	4	1	100.81	50.36999999999999	0.0	0.0	1	1.0	0.0	345.0	1	1.1	0.9				
	5	2	0.0	0.0	0.0	0.0	1	1.0	0.0	345.0	1	1.1	0.9				
	6	1	0.0	0.0	0.0	0.0	1	1.0	0.0	345.0	1	1.1	0.9				
	7	1	0.0	0.0	0.0	0.0	1	1.0	0.0	345.0	1	1.1	0.9				
	8	1	0.0	0.0	0.0	0.0	1	1.0	0.0	345.0	1	1.1	0.9				
	9	1	103.97000000000001	39.67	0.0	0.0	1	1.0	0.0	345.0	1	1.1	0.9				
	10	2	0.0	0.0	0.0	0.0	1	1.0	0.0	345.0	1	1.1	0.9				
	11	1	0.0	0.0	0.0	0.0	1	1.0	0.0	345.0	1	1.1	0.9				
	12	2	7.7	20.0	0.0	0.0	1	1.0	0.0	345.0	1	1.1	0.9				
	13	2	7.8	20.0	0.0	0.0	1	1.0	0.0	345.0	1	1.1	0.9				
	14	1	0.0	0.0	0.0	0.0	1	1.0	0.0	345.0	1	1.1	0.9				
	15	1	0.0	-13.01	0.0	0.0	1	1.0	0.0	345.0	1	1.1	0.9				
	16	1	0.0	0.0	0.0	0.0	1	1.0	0.0	345.0	1	1.1	0.9				
	17	1	0.0	0.0	0.0	94.26	1	1.0	0.0	345.0	1	1.1	0.9				
	18	2	12.0	30.0	0.0	0.0	1	1.0	0.0	345.0	1	1.1	0.9				
	19	2	23.8	60.0	0.0	0.0	1	1.0	0.0	345.0	1	1.1	0.9				
	20	2	38.0	64.0	0.0	0.0	1	1.0	0.0	500.0	1	1.1	0.9				
	21	1	175.56	-19.75	0.0	0.0	1	1.0	0.0	345.0	1	1.1	0.9				
	22	1	0.0	0.0	0.0	0.0	1	1.0	0.0	345.0	1	1.1	0.9				
	23	1	0.0	0.0	0.0	0.0	1	1.0	0.0	345.0	1	1.1	0.9				
	24	2	0.0	0.0	0.0	168.92	1	1.0	0.0	500.0	1	1.1	0.9				
	25	1	0.0	0.0	0.0	-33.19	1	1.0	0.0	345.0	1	1.1	0.9				
	26	1	102.47999999999999	53.02	0.0	0.0	1	1.0	0.0	345.0	1	1.1	0.9				
	27	1	0.0	0.0	0.0	0.0	1	1.0	0.0	345.0	1	1.1	0.9				
	28	1	0.0	0.0	0.0	0.0	1	1.0	0.0	345.0	1	1.1	0.9				
	29	1	33.71	-15.57	0.0	0.0	1	1.0	0.0	345.0	1	1.1	0.9				
	30	1	0.0	0.0	0.0	0.0	1	1.0	0.0	345.0	1	1.1	0.9				
	31	1	0.0	0.0	0.0	0.0	1	1.0	0.0	345.0	1	1.1	0.9				
	32	1	0.0	0.0	0.0	118.65	1	1.0	0.0	500.0	1	1.1	0.9				
	33	1	0.0	0.0	0.0	0.0	1	1.0	0.0	345.0	1	1.1	0.9				
	34	1	0.0	0.0	0.0	0.0	1	1.0	0.0	345.0	1	1.1	0.9				
	35	1	0.0	0.0	0.0	0.0	1	1.0	0.0	345.0	1	1.1	0.9				
	36	1	0.0	0.0	0.0	-16.94	1	1.0	0.0	345.0	1	1.1	0.9				
	37	1	57.879999999999995	42.37	0.0	2.23	1	1.0	0.0	345.0	1	1.1	0.9				
	38	1	0.0	0.0	0.0	5.87	1	1.0	0.0	345.0	1	1.1	0.9				
	39	1	0.0	0.0	0.0	2.56	1	1.0	0.0	345.0	1	1.1	0.9				
	40	1	0.0	0.0	0.0	6.7	1	1.0	0.0	345.0	1	1.1	0.9				
	41	1	0.0	0.0	0.0	40.02	1	1.0	0.0	16.0	1	1.1	0.9				
	42	1	5.72	1.6	0.0	0.0	1	1.0	0.0	138.0	1	1.1	0.9				
	43	1	3.85	1.4	0.0	0.0	1	1.0	0.0	138.0	1	1.1	0.9				
	44	2	53.77000000000001	21.02	0.0	0.0	1	1.0	0.0	138.0	1	1.1	0.9				
	45	2	77.06	34.03	0.0	0.0	1	1.0	0.0	138.0	1	1.1	0.9				
	46	1	3.75	0.5	0.0	0.0	1	1.0	0.0	138.0	1	1.1	0.9				
	47	1	0.0	0.0	0.0	0.0	1	1.0	0.0	138.0	1	1.1	0.9				
	48	1	6.61	1.3	0.0	0.0	1	1.0	0.0	138.0	1	1.1	0.9				
	49	1	5.52	0.6	0.0	0.0	1	1.0	0.0	138.0	1	1.1	0.9				
	50	1	4.14	0.6	0.0	0.0	1	1.0	0.0	138.0	1	1.1	0.9				
	51	1	0.0	0.0	0.0	0.0	1	1.0	0.0	138.0	1	1.1	0.9				
	52	1	6.21	1.2	0.0	0.0	1	1.0	0.0	138.0	1	1.1	0.9				
	53	1	8.68	1.6	0.0	0.0	1	1.0	0.0	138.0	1	1.1	0.9				
	54	1	3.95	0.2	0.0	0.0	1	1.0	0.0	138.0	1	1.1	0.9				
	55	1	27.699999999999996	7.77	0.0	0.0	1	1.0	0.0	138.0	1	1.1	0.9				
	56	1	0.0	0.0	0.0	0.0	1	1.0	0.0	138.0	1	1.1	0.9				
	57	1	8.19	1.8000000000000003	0.0	0.0	1	1.0	0.0	138.0	1	1.1	0.9				
	58	1	0.0	0.0	0.0	0.0	1	1.0	0.0	138.0	1	1.1	0.9				
	59	2	6.02	2.7	0.0	0.0	1	1.0	0.0	138.0	1	1.1	0.9				
	60	1	7.89	0.2	0.0	0.0	1	1.0	0.0	138.0	1	1.1	0.9				
	61	1	0.0	0.0	0.0	0.0	1	1.0	0.0	138.0	1	1.1	0.9				
	62	1	3.65	1.2	0.0	0.0	1	1.0	0.0	138.0	1	1.1	0.9				
	63	1	23.01	3.27	0.0	0.0	1	1.0	0.0	138.0	1	1.1	0.9				
	64	1	2.22	0.71	0.0	-34.1	1	1.0	0.0	138.0	1	1.1	0.9				
	65	1	2.29	0.33	0.0	0.0	1	1.0	0.0	138.0	1	1.1	0.9				
	66	1	2.08	0.84	0.0	7.690000000000001	1	1.0	0.0	138.0	1	1.1	0.9				
	67	1	5.52	1.36	0.0	0.0	1	1.0	0.0	138.0	1	1.1	0.9				
	68	1	67.63	25.33	0.0	0.0	1	1.0	0.0	138.0	1	1.1	0.9				
	69	1	6.559999999999999	2.09	0.0	0.0	1	1.0	0.0	138.0	1	1.1	0.9				
	70	1	53.26	-14.069999999999999	0.0	0.0	1	1.0	0.0	138.0	1	1.1	0.9				
	71	1	110.89	66.23	0.0	0.0	1	1.0	0.0	138.0	1	1.1	0.9				
	72	1	0.0	0.0	0.0	0.0	1	1.0	0.0	138.0	1	1.1	0.9				
	73	1	12.5	2.2	0.0	0.0	1	1.0	0.0	138.0	1	1.1	0.9				
	74	1	7.91	1.37	0.0	0.0	1	1.0	0.0	138.0	1	1.1	0.9				
	75	1	24.4	10.74	0.0	0.0	1	1.0	0.0	138.0	1	1.1	0.9				
	76	1	16.95	4.84	0.0	0.0	1	1.0	0.0	138.0	1	1.1	0.9				
	77	1	7.28	2.63	0.0	0.0	1	1.0	0.0	138.0	1	1.1	0.9				
	78	1	0.0	0.0	0.0	0.0	1	1.0	0.0	138.0	1	1.1	0.9				
	79	1	16.38	4.42	0.0	0.0	1	1.0	0.0	138.0	1	1.1	0.9				
	80	2	1.0	3.0	0.0	0.0	1	1.0	0.0	138.0	1	1.1	0.9				
	81	1	0.0	0.0	0.0	0.0	1	1.0	0.0	138.0	1	1.1	0.9				
	82	1	3.02	1.8900000000000001	0.0	-5.96	1	1.0	0.0	138.0	1	1.1	0.9				
	83	1	6.87	3.6799999999999997	0.0	0.0	1	1.0	0.0	138.0	1	1.1	0.9				
	84	1	3.3300000000000005	0.71	0.0	0.0	1	1.0	0.0	138.0	1	1.1	0.9				
	85	2	15.78	30.64	0.0	0.0	1	1.0	0.0	138.0	1	1.1	0.9				
	86	1	18.75	5.96	0.0	3.8900000000000006	1	1.0	0.0	138.0	1	1.1	0.9				
	87	1	229.29	29.74	0.0	-60.0	1	1.0	0.0	138.0	1	1.1	0.9				
	88	1	11.46	3.7699999999999996	0.0	0.0	1	1.0	0.0	138.0	1	1.1	0.9				
	89	1	12.6	5.64	0.0	0.0	1	1.0	0.0	138.0	1	1.1	0.9				
	90	1	28.1	-1.9299999999999997	0.0	0.0	1	1.0	0.0	138.0	1	1.1	0.9				
	91	1	10.09	5.57	0.0	0.0	1	1.0	0.0	138.0	1	1.1	0.9				
	92	1	0.0	0.0	0.0	0.0	1	1.0	0.0	138.0	1	1.1	0.9				
	93	1	5.2	1.47	0.0	0.0	1	1.0	0.0	138.0	1	1.1	0.9				
	94	1	45.72	-10.43	0.0	0.0	1	1.0	0.0	138.0	1	1.1	0.9				
	95	1	0.0	0.0	0.0	0.0	1	1.0	0.0	138.0	1	1.1	0.9				
	96	1	0.0	0.0	0.0	0.0	1	1.0	0.0	138.0	1	1.1	0.9				
	97	1	3.54	0.21	0.0	0.0	1	1.0	0.0	138.0	1	1.1	0.9				
	98	2	4.4	5.71	0.0	0.0	1	1.0	0.0	138.0	1	1.1	0.9				
	99	1	6.329999999999999	5.23	0.0	12.01	1	1.0	0.0	138.0	1	1.1	0.9				
	100	1	15.17	4.72	0.0	0.0	1	1.0	0.0	138.0	1	1.1	0.9				
	101	1	13.059999999999999	4.72	0.0	0.0	1	1.0	0.0	138.0	1	1.1	0.9				
	102	1	0.0	0.0	0.0	0.0	1	1.0	0.0	138.0	1	1.1	0.9				
	103	1	24.26	11.73	0.0	0.0	1	1.0	0.0	138.0	1	1.1	0.9				
	104	1	9.45	4.22	0.0	-3.12	1	1.0	0.0	138.0	1	1.1	0.9				
	105	1	8.94	4.02	0.0	0.0	1	1.0	0.0	138.0	1	1.1	0.9				
	106	1	9.75	5.12	0.0	0.0	1	1.0	0.0	138.0	1	1.1	0.9				
	107	1	5.53	2.01	0.0	0.0	1	1.0	0.0	138.0	1	1.1	0.9				
	108	1	5.22	1.91	0.0	0.0	1	1.0	0.0	138.0	1	1.1	0.9				
	109	1	12.08	3.61	0.0	0.0	1	1.0	0.0	138.0	1	1.1	0.9				
	110	1	24.24	1.56	0.0	0.0	1	1.0	0.0	138.0	1	1.1	0.9				
	111	1	9.95	2.41	0.0	0.0	1	1.0	0.0	138.0	1	1.1	0.9				
	112	1	127.47	30.18	0.0	0.0	1	1.0	0.0	138.0	1	1.1	0.9				
	113	2	0.0	0.0	0.0	0.0	1	1.0	0.0	138.0	1	1.1	0.9				
	114	1	0.0	0.0	0.0	0.0	1	1.0	0.0	138.0	1	1.1	0.9				
	115	2	7.23	2.61	0.0	0.0	1	1.0	0.0	138.0	1	1.1	0.9				
	116	1	7.13	2.61	0.0	0.0	1	1.0	0.0	138.0	1	1.1	0.9				
	117	1	8.94	2.71	0.0	0.0	1	1.0	0.0	138.0	1	1.1	0.9				
	118	1	5.93	1.41	0.0	0.0	1	1.0	0.0	138.0	1	1.1	0.9				
	119	1	0.0	0.0	0.0	45.0	1	1.0	0.0	16.0	1	1.1	0.9				
	120	2	26.22	20.39	0.0	0.0	1	1.0	0.0	138.0	1	1.1	0.9				
	121	1	26.94	-4.46	0.0	0.0	1	1.0	0.0	138.0	1	1.1	0.9				
	122	1	3.12	1.41	0.0	0.0	1	1.0	0.0	138.0	1	1.1	0.9				
	123	1	0.0	0.0	0.0	0.0	1	1.0	0.0	138.0	1	1.1	0.9				
	124	2	0.0	0.0	0.0	0.0	1	1.0	0.0	138.0	1	1.1	0.9				
	125	1	8.84	2.91	0.0	0.0	1	1.0	0.0	138.0	1	1.1	0.9				
	126	1	5.42	2.31	0.0	0.0	1	1.0	0.0	138.0	1	1.1	0.9				
	127	1	4.72	2.11	0.0	0.0	1	1.0	0.0	138.0	1	1.1	0.9				
	128	1	9.45	3.71	0.0	0.0	1	1.0	0.0	138.0	1	1.1	0.9				
	129	1	13.059999999999999	4.22	0.0	0.0	1	1.0	0.0	138.0	1	1.1	0.9				
	130	1	9.04	5.52	0.0	0.0	1	1.0	0.0	138.0	1	1.1	0.9				
	131	1	13.99	11.8	0.0	0.0	1	1.0	0.0	138.0	1	1.1	0.9				
	132	2	12.06	9.44	0.0	0.0	1	1.0	0.0	138.0	1	1.1	0.9				
	133	1	0.0	0.0	0.0	0.0	1	1.0	0.0	138.0	1	1.1	0.9				
	134	1	8.94	3.82	0.0	0.0	1	1.0	0.0	138.0	1	1.1	0.9				
	135	1	11.05	3.72	0.0	0.0	1	1.0	0.0	138.0	1	1.1	0.9				
	136	1	11.05	3.8599999999999994	0.0	-1.17	1	1.0	0.0	138.0	1	1.1	0.9				
	137	1	3.82	1.0	0.0	0.0	1	1.0	0.0	138.0	1	1.1	0.9				
	138	1	20.4	6.83	0.0	0.0	1	1.0	0.0	138.0	1	1.1	0.9				
	139	1	9.45	3.11	0.0	0.0	1	1.0	0.0	138.0	1	1.1	0.9				
	140	1	0.0	0.0	0.0	0.0	1	1.0	0.0	138.0	1	1.1	0.9				
	141	1	10.45	5.22	0.0	0.0	1	1.0	0.0	138.0	1	1.1	0.9				
	142	1	4.72	2.11	0.0	0.0	1	1.0	0.0	138.0	1	1.1	0.9				
	143	1	6.83	2.31	0.0	0.0	1	1.0	0.0	138.0	1	1.1	0.9				
	144	1	17.35	-0.22999999999999998	0.0	0.0	1	1.0	0.0	138.0	1	1.1	0.9				
	145	1	12.76	4.32	0.0	0.0	1	1.0	0.0	138.0	1	1.1	0.9				
	146	1	0.0	0.0	0.0	0.0	1	1.0	0.0	138.0	1	1.1	0.9				
	147	2	16.78	6.329999999999999	0.0	0.0	1	1.0	0.0	138.0	1	1.1	0.9				
	148	1	15.67	4.72	0.0	0.0	1	1.0	0.0	138.0	1	1.1	0.9				
	149	1	15.67	4.22	0.0	0.0	1	1.0	0.0	138.0	1	1.1	0.9				
	150	1	10.95	3.19	0.0	0.0	1	1.0	0.0	138.0	1	1.1	0.9				
	151	1	25.869999999999997	0.56	0.0	0.0	1	1.0	0.0	138.0	1	1.1	0.9				
	152	1	6.43	2.81	0.0	0.0	1	1.0	0.0	138.0	1	1.1	0.9				
	153	2	83.9	27.21	0.0	0.0	1	1.0	0.0	138.0	1	1.1	0.9				
	154	1	4.12	2.51	0.0	0.0	1	1.0	0.0	138.0	1	1.1	0.9				
	155	1	57.98	32.55	0.0	0.0	1	1.0	0.0	138.0	1	1.1	0.9				
	156	1	25.120000000000005	8.34	0.0	0.0	1	1.0	0.0	138.0	1	1.1	0.9				
	157	2	19.19	12.25	0.0	0.0	1	1.0	0.0	138.0	1	1.1	0.9				
	158	1	13.16	7.629999999999999	0.0	0.0	1	1.0	0.0	138.0	1	1.1	0.9				
	159	2	18.79	6.7299999999999995	0.0	0.0	1	1.0	0.0	138.0	1	1.1	0.9				
	160	2	22.0	20.15	0.0	0.0	1	1.0	0.0	138.0	1	1.1	0.9				
	161	1	12.46	5.42	0.0	0.0	1	1.0	0.0	138.0	1	1.1	0.9				
	162	1	41.9	16.77	0.0	0.0	1	1.0	0.0	138.0	1	1.1	0.9				
	163	1	21.0	8.33	0.0	0.0	1	1.0	0.0	138.0	1	1.1	0.9				
	164	1	2.11	0.8	0.0	0.0	1	1.0	0.0	138.0	1	1.1	0.9				
	165	1	44.41	14.96	0.0	0.0	1	1.0	0.0	138.0	1	1.1	0.9				
	166	1	50.74000000000001	16.87	0.0	0.0	1	1.0	0.0	138.0	1	1.1	0.9				
	167	1	14.17	5.22	0.0	0.0	1	1.0	0.0	138.0	1	1.1	0.9				
	168	1	0.0	0.0	0.0	0.0	1	1.0	0.0	500.0	1	1.1	0.9				
	169	1	0.0	0.0	0.0	0.0	2	1.0	0.0	500.0	2	1.1	0.9				
	170	2	0.0	0.0	0.0	0.0	2	1.0	0.0	500.0	2	1.1	0.9				
	171	2	0.0	0.0	0.0	0.0	2	1.0	0.0	500.0	2	1.1	0.9				
	172	2	0.0	0.0	0.0	0.0	2	1.0	0.0	500.0	2	1.1	0.9				
	173	1	122.12	-142.76	0.0	0.0	2	1.0	0.0	500.0	2	1.1	0.9				
	174	1	0.0	0.0	0.0	0.0	2	1.0	0.0	500.0	2	1.1	0.9				
	175	2	0.0	0.0	0.0	0.0	2	1.0	0.0	500.0	2	1.1	0.9				
	176	2	0.0	0.0	0.0	0.0	2	1.0	0.0	500.0	2	1.1	0.9				
	177	2	0.0	0.0	0.0	0.0	2	1.0	0.0	500.0	2	1.1	0.9				
	178	2	0.0	0.0	0.0	0.0	2	1.0	0.0	500.0	2	1.1	0.9				
	179	1	4.5	3.37	0.0	0.0	2	1.0	0.0	500.0	2	1.1	0.9				
	180	2	0.0	0.0	0.0	0.0	2	1.0	0.0	500.0	2	1.1	0.9				
	181	2	0.0	0.0	0.0	0.0	2	1.0	0.0	500.0	2	1.1	0.9				
	182	1	0.0	0.0	0.0	0.0	2	1.0	0.0	500.0	2	1.1	0.9				
	183	2	0.0	0.0	0.0	0.0	2	1.0	0.0	500.0	2	1.1	0.9				
	184	2	0.0	0.0	0.0	0.0	2	1.0	0.0	500.0	2	1.1	0.9				
	185	2	0.0	0.0	0.0	0.0	2	1.0	0.0	500.0	2	1.1	0.9				
	186	2	0.0	0.0	0.0	0.0	2	1.0	0.0	500.0	2	1.1	0.9				
	187	1	0.0	0.0	0.0	0.0	2	1.0	0.0	500.0	2	1.1	0.9				
	188	2	0.0	0.0	0.0	0.0	2	1.0	0.0	500.0	2	1.1	0.9				
	189	2	0.0	0.0	0.0	0.0	2	1.0	0.0	500.0	2	1.1	0.9				
	190	2	0.0	0.0	0.0	0.0	2	1.0	0.0	500.0	2	1.1	0.9				
	191	1	0.0	0.0	0.0	0.0	2	1.0	0.0	500.0	2	1.1	0.9				
	192	2	0.0	0.0	0.0	0.0	2	1.0	0.0	500.0	2	1.1	0.9				
	193	2	0.0	0.0	0.0	0.0	2	1.0	0.0	500.0	2	1.1	0.9				
	194	2	0.0	0.0	0.0	0.0	2	1.0	0.0	500.0	2	1.1	0.9				
	195	1	0.0	0.0	0.0	0.0	2	1.0	0.0	500.0	2	1.1	0.9				
	196	1	26.44	39.0	0.0	0.0	2	1.0	0.0	500.0	2	1.1	0.9				
	197	2	0.0	0.0	0.0	0.0	2	1.0	0.0	500.0	2	1.1	0.9				
	198	2	0.0	0.0	0.0	0.0	2	1.0	0.0	500.0	2	1.1	0.9				
	199	1	0.0	0.0	0.0	0.0	2	1.0	0.0	500.0	2	1.1	0.9				
	200	1	0.0	0.0	0.0	0.0	2	1.0	0.0	500.0	2	1.1	0.9				
	201	1	0.0	0.0	0.0	0.0	2	1.0	0.0	500.0	2	1.1	0.9				
	202	1	0.0	0.0	0.0	12.0	2	1.0	0.0	500.0	2	1.1	0.9				
	203	2	0.0	0.0	0.0	0.0	2	1.0	0.0	500.0	2	1.1	0.9				
	204	1	0.0	0.0	0.0	20.34	2	1.0	0.0	500.0	2	1.1	0.9				
	205	1	0.0	0.0	0.0	0.0	2	1.0	0.0	500.0	2	1.1	0.9				
	206	2	0.0	0.0	0.0	0.0	2	1.0	0.0	500.0	2	1.1	0.9				
	207	1	1094.16	-110.77	0.0	2.62	2	1.0	0.0	500.0	2	1.1	0.9				
	208	1	0.0	0.0	0.0	0.0	2	1.0	0.0	500.0	2	1.1	0.9				
	209	1	0.0	0.0	0.0	0.0	2	1.0	0.0	500.0	2	1.1	0.9				
	210	1	0.0	0.0	0.0	0.0	2	1.0	0.0	500.0	2	1.1	0.9				
	211	1	0.0	0.0	0.0	0.0	2	1.0	0.0	500.0	2	1.1	0.9				
	212	1	12.659999999999998	0.0	0.0	-111.27	2	1.0	0.0	500.0	2	1.1	0.9				
	213	1	476.02000000000004	-4.36	0.0	0.0	2	1.0	0.0	500.0	2	1.1	0.9				
	214	1	725.74	-39.99	0.0	0.0	2	1.0	0.0	500.0	2	1.1	0.9				
	215	1	0.0	0.0	0.0	0.0	2	1.0	0.0	500.0	2	1.1	0.9				
	216	1	0.0	0.0	0.0	-62.9	2	1.0	0.0	500.0	2	1.1	0.9				
	217	1	471.28	-155.26	0.0	0.0	2	1.0	0.0	500.0	2	1.1	0.9				
	218	1	0.0	0.0	0.0	0.0	2	1.0	0.0	500.0	2	1.1	0.9				
	219	1	0.0	0.0	0.0	0.0	2	1.0	0.0	500.0	2	1.1	0.9				
	220	1	0.0	0.0	0.0	170.09	2	1.0	0.0	500.0	2	1.1	0.9				
	221	1	0.0	0.0	0.0	0.0	2	1.0	0.0	500.0	2	1.1	0.9				
	222	1	0.0	0.0	0.0	0.0	2	1.0	0.0	500.0	2	1.1	0.9				
	223	1	62.79	16.18	0.0	2.68	2	1.0	0.0	345.0	2	1.1	0.9				
	224	1	331.47	62.74000000000001	0.0	28.59	2	1.0	0.0	345.0	2	1.1	0.9				
	225	1	0.0	0.0	0.0	-0.98	2	1.0	0.0	345.0	2	1.1	0.9				
	226	1	0.0	0.0	0.0	0.0	2	1.0	0.0	345.0	2	1.1	0.9				
	227	1	0.0	0.0	0.0	-0.34	2	1.0	0.0	345.0	2	1.1	0.9				
	228	2	464.37	123.64	0.0	-0.22999999999999998	2	1.0	0.0	138.0	2	1.1	0.9				
	229	2	504.38	158.05	0.0	104.88	2	1.0	0.0	138.0	2	1.1	0.9				
	230	2	471.95	147.39	0.0	99.73	2	1.0	0.0	138.0	2	1.1	0.9				
	231	1	838.87	74.95	0.0	214.84	2	1.0	0.0	138.0	2	1.1	0.9				
	232	1	228.81	90.32	0.0	28.749999999999996	2	1.0	0.0	138.0	2	1.1	0.9				
	233	1	203.94	104.43	0.0	28.59	2	1.0	0.0	138.0	2	1.1	0.9				
	234	1	125.32	40.73	0.0	14.21	2	1.0	0.0	138.0	2	1.1	0.9				
	235	1	125.32	40.73	0.0	14.21	2	1.0	0.0	138.0	2	1.1	0.9				
	236	1	131.07	67.13	0.0	26.74	2	1.0	0.0	138.0	2	1.1	0.9				
	237	1	131.07	67.15	0.0	27.33	2	1.0	0.0	138.0	2	1.1	0.9				
	238	1	170.97	87.5	0.0	34.18	2	1.0	0.0	138.0	2	1.1	0.9				
	239	1	146.99	76.47	0.0	54.85	2	1.0	0.0	138.0	2	1.1	0.9				
	240	1	309.47	101.63	0.0	65.2	2	1.0	0.0	138.0	2	1.1	0.9				
	241	1	309.47	101.64999999999999	0.0	64.85	2	1.0	0.0	138.0	2	1.1	0.9				
	242	1	292.53	75.56	0.0	-0.26	2	1.0	0.0	138.0	2	1.1	0.9				
	243	1	250.64	81.17	0.0	34.17	2	1.0	0.0	138.0	2	1.1	0.9				
	244	1	15.740000000000002	13.489999999999998	0.0	-0.26	2	1.0	0.0	138.0	2	1.1	0.9				
	245	1	15.740000000000002	13.489999999999998	0.0	-0.56	2	1.0	0.0	138.0	2	1.1	0.9				
	246	1	0.0	0.0	0.0	0.0	2	1.0	0.0	500.0	2	1.1	0.9				
	247	1	0.0	0.0	0.0	0.0	2	1.0	0.0	500.0	2	1.1	0.9				
	248	1	292.53	76.1	0.0	4.85	2	1.0	0.0	138.0	2	1.1	0.9				
	249	1	0.0	0.0	0.0	-0.79	2	1.0	0.0	138.0	2	1.1	0.9				
	250	1	292.53	76.1	0.0	34.39	2	1.0	0.0	138.0	2	1.1	0.9				
	251	1	222.15000000000003	66.27	0.0	5.34	2	1.0	0.0	138.0	2	1.1	0.9				
	252	1	146.99	76.47	0.0	45.15	2	1.0	0.0	138.0	2	1.1	0.9				
	253	1	0.0	0.0	0.0	0.75	2	1.0	0.0	138.0	2	1.1	0.9				
	254	1	0.0	0.0	0.0	1.01	2	1.0	0.0	138.0	2	1.1	0.9				
	255	1	734.12	134.23	0.0	184.29	2	1.0	0.0	138.0	2	1.1	0.9				
	256	1	0.0	0.0	0.0	0.1	2	1.0	0.0	138.0	2	1.1	0.9				
	257	1	0.0	0.0	0.0	0.0	2	1.0	0.0	138.0	2	1.1	0.9				
	258	2	0.0	0.0	0.0	0.0	2	1.0	0.0	138.0	2	1.1	0.9				
	259	2	0.0	0.0	0.0	0.0	2	1.0	0.0	138.0	2	1.1	0.9				
	260	2	0.0	0.0	0.0	0.0	2	1.0	0.0	138.0	2	1.1	0.9				
	261	1	0.0	0.0	0.0	0.0	2	1.0	0.0	138.0	2	1.1	0.9				
	262	2	0.0	0.0	0.0	0.0	2	1.0	0.0	138.0	2	1.1	0.9				
	263	1	0.0	0.0	0.0	2.12	2	1.0	0.0	138.0	2	1.1	0.9				
	264	1	0.0	0.0	0.0	0.0	2	1.0	0.0	138.0	2	1.1	0.9				
	265	1	0.0	0.0	0.0	0.0	2	1.0	0.0	138.0	2	1.1	0.9				
	266	1	0.0	0.0	0.0	0.0	2	1.0	0.0	138.0	2	1.1	0.9				
	267	1	0.0	0.0	0.0	0.0	2	1.0	0.0	138.0	2	1.1	0.9				
	268	1	0.0	0.0	0.0	0.0	2	1.0	0.0	138.0	2	1.1	0.9				
	269	1	0.0	0.0	0.0	0.0	2	1.0	0.0	138.0	2	1.1	0.9				
	270	1	0.0	0.0	0.0	0.0	2	1.0	0.0	138.0	2	1.1	0.9				
	271	1	0.0	0.0	0.0	0.0	2	1.0	0.0	138.0	2	1.1	0.9				
	272	1	0.0	0.0	0.0	0.0	2	1.0	0.0	138.0	2	1.1	0.9				
	273	1	0.0	0.0	0.0	0.0	2	1.0	0.0	33.0	2	1.1	0.9				
	274	1	0.0	0.0	0.0	0.0	2	1.0	0.0	138.0	2	1.1	0.9				
	275	1	0.0	0.0	0.0	0.0	2	1.0	0.0	138.0	2	1.1	0.9				
	276	1	0.0	0.0	0.0	0.0	2	1.0	0.0	138.0	2	1.1	0.9				
	277	1	0.0	0.0	0.0	0.0	2	1.0	0.0	138.0	2	1.1	0.9				
	278	1	0.0	0.0	0.0	0.0	2	1.0	0.0	138.0	2	1.1	0.9				
	279	1	0.0	0.0	0.0	-0.11	2	1.0	0.0	138.0	2	1.1	0.9				
	280	1	0.0	0.0	0.0	0.0	2	1.0	0.0	138.0	2	1.1	0.9				
	281	1	0.0	0.0	0.0	-0.11	2	1.0	0.0	138.0	2	1.1	0.9				
	282	1	0.0	0.0	0.0	-0.6	2	1.0	0.0	138.0	2	1.1	0.9				
	283	1	0.0	0.0	0.0	0.0	2	1.0	0.0	138.0	2	1.1	0.9				
	284	1	0.0	0.0	0.0	-0.14	2	1.0	0.0	138.0	2	1.1	0.9				
	285	1	0.0	0.0	0.0	0.0	2	1.0	0.0	138.0	2	1.1	0.9				
	286	1	0.0	0.0	0.0	0.0	2	1.0	0.0	138.0	2	1.1	0.9				
	287	1	0.0	0.0	0.0	-0.3	2	1.0	0.0	138.0	2	1.1	0.9				
	288	1	0.0	0.0	0.0	-0.12	2	1.0	0.0	138.0	2	1.1	0.9				
	289	1	0.0	0.0	0.0	-0.3	2	1.0	0.0	138.0	2	1.1	0.9				
	290	1	0.0	0.0	0.0	-0.13	2	1.0	0.0	138.0	2	1.1	0.9				
	291	1	0.0	0.0	0.0	0.0	2	1.0	0.0	138.0	2	1.1	0.9				
	292	1	0.0	0.0	0.0	0.0	2	1.0	0.0	138.0	2	1.1	0.9				
	293	1	0.0	0.0	0.0	0.0	2	1.0	0.0	138.0	2	1.1	0.9				
	294	1	0.0	0.0	0.0	1.03	2	1.0	0.0	33.0	2	1.1	0.9				
	295	1	0.0	0.0	0.0	0.0	2	1.0	0.0	11.0	2	1.1	0.9				
	296	1	0.0	0.0	0.0	0.0	2	1.0	0.0	11.0	2	1.1	0.9				
	297	1	0.0	0.0	0.0	3.1400000000000006	2	1.0	0.0	33.0	2	1.1	0.9				
	298	1	0.0	0.0	0.0	0.0	2	1.0	0.0	33.0	2	1.1	0.9				
	299	1	0.0	0.0	0.0	1.13	2	1.0	0.0	33.0	2	1.1	0.9				
	300	1	0.0	0.0	0.0	2.26	2	1.0	0.0	33.0	2	1.1	0.9				
	301	1	0.0	0.0	0.0	1.06	2	1.0	0.0	33.0	2	1.1	0.9				
	302	1	0.0	0.0	0.0	0.0	2	1.0	0.0	33.0	2	1.1	0.9				
	303	1	0.0	0.0	0.0	0.0	2	1.0	0.0	33.0	2	1.1	0.9				
	304	1	0.0	0.0	0.0	0.0	2	1.0	0.0	11.0	2	1.1	0.9				
	305	1	0.0	0.0	0.0	0.0	2	1.0	0.0	11.0	2	1.1	0.9				
	306	1	0.0	0.0	0.0	0.0	2	1.0	0.0	138.0	2	1.1	0.9				
	307	2	0.0	0.0	0.0	0.0	2	1.0	0.0	138.0	2	1.1	0.9				
	308	1	0.0	0.0	0.0	0.0	2	1.0	0.0	138.0	2	1.1	0.9				
	309	1	0.0	0.0	0.0	0.0	2	1.0	0.0	138.0	2	1.1	0.9				
	310	1	0.0	0.0	0.0	-0.32	2	1.0	0.0	138.0	2	1.1	0.9				
	311	1	92.7	-18.34	0.0	0.0	3	1.0	0.0	138.0	3	1.1	0.9				
	312	1	92.97	-18.4	0.0	0.0	3	1.0	0.0	138.0	3	1.1	0.9				
	313	1	0.0	0.0	0.0	0.0	3	1.0	0.0	138.0	3	1.1	0.9				
	314	1	0.0	0.0	0.0	0.0	3	1.0	0.0	138.0	3	1.1	0.9				
	315	1	0.0	0.0	0.0	0.0	3	1.0	0.0	138.0	3	1.1	0.9				
	316	2	0.0	0.0	0.0	0.0	3	1.0	0.0	138.0	3	1.1	0.9				
	317	1	0.0	0.0	0.0	0.0	3	1.0	0.0	138.0	3	1.1	0.9				
	318	1	0.0	0.0	0.0	0.0	3	1.0	0.0	138.0	3	1.1	0.9				
	319	2	0.0	0.0	0.0	0.0	3	1.0	0.0	138.0	3	1.1	0.9				
	320	1	0.0	0.0	0.0	0.0	3	1.0	0.0	138.0	3	1.1	0.9				
	321	2	0.0	0.0	0.0	0.0	3	1.0	0.0	138.0	3	1.1	0.9				
	322	1	0.0	0.0	0.0	0.0	3	1.0	0.0	138.0	3	1.1	0.9				
	323	2	0.0	0.0	0.0	0.0	3	1.0	0.0	138.0	3	1.1	0.9				
	324	2	0.0	0.0	0.0	0.0	3	1.0	0.0	33.0	3	1.1	0.9				
	325	1	0.0	0.0	0.0	0.0	3	1.0	0.0	138.0	3	1.1	0.9				
	326	2	0.0	0.0	0.0	0.0	3	1.0	0.0	138.0	3	1.1	0.9				
	327	2	0.0	0.0	0.0	0.0	3	1.0	0.0	138.0	3	1.1	0.9				
	328	1	0.0	0.0	0.0	0.0	3	1.0	0.0	138.0	3	1.1	0.9				
	329	1	0.0	0.0	0.0	0.0	3	1.0	0.0	138.0	3	1.1	0.9				
	330	2	0.0	0.0	0.0	0.0	3	1.0	0.0	138.0	3	1.1	0.9				
	331	1	0.0	0.0	0.0	0.0	3	1.0	0.0	138.0	3	1.1	0.9				
	332	1	0.0	0.0	0.0	0.0	3	1.0	0.0	138.0	3	1.1	0.9				
	333	1	0.0	0.0	0.0	0.0	3	1.0	0.0	33.0	3	1.1	0.9				
	334	2	0.0	0.0	0.0	0.0	3	1.0	0.0	33.0	3	1.1	0.9				
	335	2	0.0	0.0	0.0	0.0	3	1.0	0.0	33.0	3	1.1	0.9				
	336	2	0.0	0.0	0.0	0.0	3	1.0	0.0	33.0	3	1.1	0.9				
	337	1	0.0	0.0	0.0	0.0	3	1.0	0.0	138.0	3	1.1	0.9				
	338	1	0.0	0.0	0.0	0.0	3	1.0	0.0	138.0	3	1.1	0.9				
	339	1	0.0	0.0	0.0	0.0	3	1.0	0.0	33.0	3	1.1	0.9				
	340	2	0.0	0.0	0.0	0.0	3	1.0	0.0	33.0	3	1.1	0.9				
	341	1	0.0	0.0	0.0	0.0	3	1.0	0.0	138.0	3	1.1	0.9				
	342	2	0.0	0.0	0.0	0.0	3	1.0	0.0	138.0	3	1.1	0.9				
	343	1	0.0	0.0	0.0	0.0	3	1.0	0.0	138.0	3	1.1	0.9				
	344	1	11.93	-6.559999999999999	0.0	0.0	3	1.0	0.0	138.0	3	1.1	0.9				
	345	1	0.0	0.0	0.0	-27.060000000000002	3	1.0	0.0	138.0	3	1.1	0.9				
	346	2	0.0	0.0	0.0	0.0	3	1.0	0.0	138.0	3	1.1	0.9				
	347	1	66.07	-43.73	0.0	0.0	3	1.0	0.0	345.0	3	1.1	0.9				
	348	2	0.0	0.0	0.0	0.0	3	1.0	0.0	138.0	3	1.1	0.9				
	349	1	0.0	0.0	0.0	0.0	3	1.0	0.0	138.0	3	1.1	0.9				
	350	1	68.96	8.19	0.0	0.0	3	1.0	0.0	138.0	3	1.1	0.9				
	351	1	0.0	0.0	0.0	0.0	3	1.0	0.0	138.0	3	1.1	0.9				
	352	1	58.269999999999996	12.689999999999998	0.0	0.0	3	1.0	0.0	138.0	3	1.1	0.9				
	353	2	0.0	0.0	0.0	0.0	3	1.0	0.0	138.0	3	1.1	0.9				
	354	1	0.0	0.0	0.0	2.05	3	1.0	0.0	138.0	3	1.1	0.9				
	355	1	0.0	0.0	0.0	-31.95	3	1.0	0.0	345.0	3	1.1	0.9				
	356	1	30.630000000000003	1.05	0.0	0.0	3	1.0	0.0	33.0	3	1.1	0.9				
	357	1	0.0	0.0	0.0	0.0	3	1.0	0.0	138.0	3	1.1	0.9				
	358	1	0.0	0.0	0.0	0.0	3	1.0	0.0	138.0	3	1.1	0.9				
	359	2	40.2	10.41	0.0	0.0	3	1.0	0.0	33.0	3	1.1	0.9				
	360	1	0.0	0.0	0.0	0.0	3	1.0	0.0	138.0	3	1.1	0.9				
	361	1	0.0	0.0	0.0	0.0	3	1.0	0.0	138.0	3	1.1	0.9				
	362	1	0.0	0.0	0.0	0.0	3	1.0	0.0	138.0	3	1.1	0.9				
	363	1	10.26	-5.54	0.0	0.0	3	1.0	0.0	138.0	3	1.1	0.9				
	364	1	0.0	0.0	0.0	0.0	3	1.0	0.0	138.0	3	1.1	0.9				
	365	1	0.0	0.0	0.0	0.0	3	1.0	0.0	138.0	3	1.1	0.9				
	366	1	0.0	0.0	0.0	0.0	3	1.0	0.0	138.0	3	1.1	0.9				
	367	1	0.0	0.0	0.0	0.0	3	1.0	0.0	138.0	3	1.1	0.9				
	368	1	57.31	3.7599999999999993	0.0	0.0	3	1.0	0.0	138.0	3	1.1	0.9				
	369	1	53.32	6.17	0.0	0.0	3	1.0	0.0	138.0	3	1.1	0.9				
	370	1	0.0	0.0	0.0	-26.25	3	1.0	0.0	138.0	3	1.1	0.9				
	371	1	0.0	0.0	0.0	0.0	3	1.0	0.0	138.0	3	1.1	0.9				
	372	1	0.0	0.0	0.0	0.0	3	1.0	0.0	138.0	3	1.1	0.9				
	373	1	0.0	0.0	0.0	0.0	3	1.0	0.0	138.0	3	1.1	0.9				
	374	1	0.0	0.0	0.0	0.0	3	1.0	0.0	138.0	3	1.1	0.9				
	375	1	0.0	0.0	0.0	0.0	3	1.0	0.0	138.0	3	1.1	0.9				
	376	2	0.0	0.0	0.0	0.0	3	1.0	0.0	138.0	3	1.1	0.9				
	377	1	0.0	0.0	0.0	0.0	3	1.0	0.0	138.0	3	1.1	0.9				
	378	1	0.0	0.0	0.0	0.0	3	1.0	0.0	138.0	3	1.1	0.9				
	379	1	0.0	0.0	0.0	0.0	3	1.0	0.0	138.0	3	1.1	0.9				
	380	1	0.0	0.0	0.0	0.0	3	1.0	0.0	138.0	3	1.1	0.9				
	381	1	0.0	0.0	0.0	0.0	3	1.0	0.0	138.0	3	1.1	0.9				
	382	1	0.0	0.0	0.0	0.0	3	1.0	0.0	138.0	3	1.1	0.9				
	383	1	0.0	0.0	0.0	0.0	3	1.0	0.0	138.0	3	1.1	0.9				
	384	2	0.0	0.0	0.0	0.0	3	1.0	0.0	138.0	3	1.1	0.9				
	385	1	0.0	0.0	0.0	0.0	3	1.0	0.0	138.0	3	1.1	0.9				
	386	1	0.0	0.0	0.0	0.0	3	1.0	0.0	138.0	3	1.1	0.9				
	387	2	0.0	0.0	0.0	0.0	3	1.0	0.0	138.0	3	1.1	0.9				
	388	1	0.0	0.0	0.0	-20.84	3	1.0	0.0	138.0	3	1.1	0.9				
	389	1	16.77	1.21	0.0	0.0	3	1.0	0.0	138.0	3	1.1	0.9				
	390	1	0.0	0.0	0.0	0.0	3	1.0	0.0	138.0	3	1.1	0.9				
	391	2	6.13	1.49	0.0	0.0	3	1.0	0.0	33.0	3	1.1	0.9				
	392	1	2.59	7.629999999999999	0.0	0.0	3	1.0	0.0	33.0	3	1.1	0.9				
	393	1	41.76	10.31	0.0	0.0	3	1.0	0.0	33.0	3	1.1	0.9				
	394	1	7.9399999999999995	1.09	0.0	0.0	3	1.0	0.0	33.0	3	1.1	0.9				
	395	1	50.34	10.11	0.0	0.0	3	1.0	0.0	33.0	3	1.1	0.9				
	396	1	4.71	0.69	0.0	0.0	3	1.0	0.0	33.0	3	1.1	0.9				
	397	1	0.0	0.0	0.0	0.0	3	1.0	0.0	33.0	3	1.1	0.9				
	398	1	0.54	0.2	0.0	0.0	3	1.0	0.0	33.0	3	1.1	0.9				
	399	1	34.06	4.86	0.0	0.0	3	1.0	0.0	33.0	3	1.1	0.9				
	400	1	0.0	0.0	0.0	0.0	3	1.0	0.0	138.0	3	1.1	0.9				
	401	1	10.08	3.07	0.0	0.0	3	1.0	0.0	33.0	3	1.1	0.9				
	402	2	0.0	0.0	0.0	0.0	4	1.0	0.0	345.0	4	1.1	0.9				
	403	1	0.53	-0.4	0.0	0.0	4	1.0	0.0	138.0	4	1.1	0.9				
	404	2	4.18	3.46	0.0	0.0	4	1.0	0.0	138.0	4	1.1	0.9				
	405	1	7.490000000000001	4.58	0.0	0.0	4	1.0	0.0	138.0	4	1.1	0.9				
	406	1	8.77	2.66	0.0	0.0	4	1.0	0.0	138.0	4	1.1	0.9				
	407	1	4.7	1.87	0.0	0.0	4	1.0	0.0	138.0	4	1.1	0.9				
	408	1	4.45	1.77	0.0	0.0	4	1.0	0.0	138.0	4	1.1	0.9				
	409	1	5.85	2.2	0.0	0.0	4	1.0	0.0	138.0	4	1.1	0.9				
	410	1	0.0	0.0	0.0	0.0	4	1.0	0.0	138.0	4	1.1	0.9				
	411	1	3.92	2.62	0.0	0.0	4	1.0	0.0	138.0	4	1.1	0.9				
	412	1	0.0	0.0	0.0	0.0	4	1.0	0.0	138.0	4	1.1	0.9				
	413	1	3.3099999999999996	1.1	0.0	0.0	4	1.0	0.0	138.0	4	1.1	0.9				
	414	1	0.0	0.0	0.0	0.0	4	1.0	0.0	138.0	4	1.1	0.9				
	415	1	19.55	6.83	0.0	0.0	4	1.0	0.0	138.0	4	1.1	0.9				
	416	1	3.9800000000000004	1.6200000000000003	0.0	0.0	4	1.0	0.0	138.0	4	1.1	0.9				
	417	1	4.7	1.86	0.0	0.0	4	1.0	0.0	138.0	4	1.1	0.9				
	418	1	0.8500000000000001	0.38	0.0	0.0	4	1.0	0.0	138.0	4	1.1	0.9				
	419	1	0.0	0.0	0.0	0.0	4	1.0	0.0	138.0	4	1.1	0.9				
	420	1	0.0	0.0	0.0	0.0	4	1.0	0.0	138.0	4	1.1	0.9				
	421	1	9.0	5.0	0.0	0.0	4	1.0	0.0	138.0	4	1.1	0.9				
	422	2	9.14	8.9	0.0	0.0	4	1.0	0.0	138.0	4	1.1	0.9				
	423	1	0.2	0.18	0.0	0.0	4	1.0	0.0	138.0	4	1.1	0.9				
	424	1	0.0	0.0	0.0	0.0	4	1.0	0.0	138.0	4	1.1	0.9				
	425	1	46.58	-11.45	0.0	0.0	4	1.0	0.0	138.0	4	1.1	0.9				
	426	1	35.07	-1.05	0.0	0.0	4	1.0	0.0	138.0	4	1.1	0.9				
	427	1	0.0	0.0	0.0	-0.66	4	1.0	0.0	138.0	4	1.1	0.9				
	428	1	0.3	0.11	0.0	0.0	4	1.0	0.0	138.0	4	1.1	0.9				
	429	1	0.0	0.0	0.0	0.0	4	1.0	0.0	138.0	4	1.1	0.9				
	430	1	0.0	0.0	0.0	0.0	4	1.0	0.0	138.0	4	1.1	0.9				
	431	1	0.0	0.0	0.0	0.0	4	1.0	0.0	138.0	4	1.1	0.9				
	432	1	2.03	0.86	0.0	0.0	4	1.0	0.0	138.0	4	1.1	0.9				
	433	1	2.35	0.9000000000000001	0.0	0.0	4	1.0	0.0	138.0	4	1.1	0.9				
	434	1	0.0	0.0	0.0	0.0	4	1.0	0.0	138.0	4	1.1	0.9				
	435	1	8.32	3.2400000000000007	0.0	0.0	4	1.0	0.0	138.0	4	1.1	0.9				
	436	1	11.09	4.43	0.0	0.0	4	1.0	0.0	138.0	4	1.1	0.9				
	437	1	0.0	0.0	0.0	0.0	4	1.0	0.0	138.0	4	1.1	0.9				
	438	1	5.77	5.42	0.0	0.0	4	1.0	0.0	138.0	4	1.1	0.9				
	439	1	1.35	0.63	0.0	0.0	4	1.0	0.0	138.0	4	1.1	0.9				
	440	1	0.0	0.0	0.0	0.0	4	1.0	0.0	138.0	4	1.1	0.9				
	441	2	23.51	39.5	0.0	0.0	4	1.0	0.0	138.0	4	1.1	0.9				
	442	1	6.419999999999999	3.3099999999999996	0.0	0.0	4	1.0	0.0	138.0	4	1.1	0.9				
	443	1	3.74	0.56	0.0	0.0	4	1.0	0.0	138.0	4	1.1	0.9				
	444	1	5.98	0.8699999999999999	0.0	0.0	4	1.0	0.0	138.0	4	1.1	0.9				
	445	1	0.0	0.0	0.0	0.0	4	1.0	0.0	138.0	4	1.1	0.9				
	446	1	0.0	0.0	0.0	0.0	4	1.0	0.0	138.0	4	1.1	0.9				
	447	1	6.72	2.64	0.0	0.0	4	1.0	0.0	138.0	4	1.1	0.9				
	448	1	11.78	4.5	0.0	0.0	4	1.0	0.0	138.0	4	1.1	0.9				
	449	1	3.5900000000000003	1.78	0.0	0.0	4	1.0	0.0	138.0	4	1.1	0.9				
	450	1	0.0	0.0	0.0	0.0	4	1.0	0.0	138.0	4	1.1	0.9				
	451	1	1.18	0.27	0.0	0.0	4	1.0	0.0	138.0	4	1.1	0.9				
	452	1	0.0	0.0	0.0	0.0	4	1.0	0.0	138.0	4	1.1	0.9				
	453	2	5.54	2.47	0.0	0.0	4	1.0	0.0	138.0	4	1.1	0.9				
	454	1	0.0	0.04	0.0	0.0	4	1.0	0.0	138.0	4	1.1	0.9				
	455	1	4.04	1.71	0.0	0.0	4	1.0	0.0	138.0	4	1.1	0.9				
	456	1	3.9800000000000004	1.71	0.0	0.0	4	1.0	0.0	138.0	4	1.1	0.9				
	457	1	0.0	0.0	0.0	0.0	4	1.0	0.0	138.0	4	1.1	0.9				
	458	1	0.0	0.0	0.0	0.0	4	1.0	0.0	138.0	4	1.1	0.9				
	459	1	9.71	3.7599999999999993	0.0	0.0	4	1.0	0.0	138.0	4	1.1	0.9				
	460	1	4.73	1.87	0.0	0.0	4	1.0	0.0	138.0	4	1.1	0.9				
	461	1	5.02	1.71	0.0	0.0	4	1.0	0.0	138.0	4	1.1	0.9				
	462	1	5.13	1.6099999999999999	0.0	0.0	4	1.0	0.0	138.0	4	1.1	0.9				
	463	1	5.77	2.38	0.0	0.0	4	1.0	0.0	138.0	4	1.1	0.9				
	464	1	4.17	1.7000000000000002	0.0	0.0	4	1.0	0.0	138.0	4	1.1	0.9				
	465	1	7.59	2.5	0.0	0.0	4	1.0	0.0	138.0	4	1.1	0.9				
	466	1	0.0	0.0	0.0	0.0	4	1.0	0.0	138.0	4	1.1	0.9				
	467	1	0.0	0.0	0.0	-31.509999999999998	4	1.0	0.0	138.0	4	1.1	0.9				
	468	1	5.78	2.11	0.0	0.0	4	1.0	0.0	138.0	4	1.1	0.9				
	469	1	8.68	3.73	0.0	0.0	4	1.0	0.0	138.0	4	1.1	0.9				
	470	1	5.78	3.5900000000000003	0.0	0.0	4	1.0	0.0	138.0	4	1.1	0.9				
	471	2	0.0	0.0	0.0	0.0	5	1.0	0.0	345.0	5	1.1	0.9				
	472	1	0.0	0.0	0.0	0.0	5	1.0	0.0	345.0	5	1.1	0.9				
	473	1	71.9	-8.9	0.0	0.0	5	1.0	0.0	345.0	5	1.1	0.9				
	474	1	114.25	24.5	0.0	0.0	5	1.0	0.0	345.0	5	1.1	0.9				
	475	1	11.57	-26.07	0.0	0.0	5	1.0	0.0	500.0	5	1.1	0.9				
	476	1	163.87	-27.940000000000005	0.0	0.0	5	1.0	0.0	500.0	5	1.1	0.9				
	477	1	0.0	0.0	0.0	88.69	5	1.0	0.0	500.0	5	1.1	0.9				
	478	1	0.0	0.0	0.0	0.0	5	1.0	0.0	345.0	5	1.1	0.9				
	479	1	0.0	0.0	0.0	0.0	5	1.0	0.0	345.0	5	1.1	0.9				
	480	1	0.0	0.0	0.0	0.0	5	1.0	0.0	345.0	5	1.1	0.9				
	481	1	0.0	0.0	0.0	0.0	5	1.0	0.0	345.0	5	1.1	0.9				
	482	1	0.0	0.0	0.0	-15.46	5	1.0	0.0	345.0	5	1.1	0.9				
	483	1	0.0	0.0	0.0	0.0	5	1.0	0.0	345.0	5	1.1	0.9				
	484	1	0.0	0.0	0.0	0.0	5	1.0	0.0	345.0	5	1.1	0.9				
	485	1	0.0	0.0	0.0	0.0	5	1.0	0.0	345.0	5	1.1	0.9				
	486	1	33.52	1.03	0.0	0.0	5	1.0	0.0	345.0	5	1.1	0.9				
	487	1	0.0	0.0	0.0	0.0	5	1.0	0.0	345.0	5	1.1	0.9				
	488	1	0.0	0.0	0.0	0.0	5	1.0	0.0	345.0	5	1.1	0.9				
	489	2	0.0	0.0	0.0	0.0	5	1.0	0.0	345.0	5	1.1	0.9				
	490	1	69.14	14.19	0.0	0.0	5	1.0	0.0	345.0	5	1.1	0.9				
	491	1	3.9699999999999998	1.0	0.0	0.0	5	1.0	0.0	345.0	5	1.1	0.9				
	492	1	0.0	0.0	0.0	0.0	5	1.0	0.0	345.0	5	1.1	0.9				
	493	1	0.0	0.0	0.0	0.0	5	1.0	0.0	500.0	5	1.1	0.9				
	494	2	13.0	30.0	0.0	0.0	5	1.0	0.0	345.0	5	1.1	0.9				
	495	2	39.35	90.07	0.0	0.0	5	1.0	0.0	345.0	5	1.1	0.9				
	496	2	26.0	60.0	0.0	0.0	5	1.0	0.0	345.0	5	1.1	0.9				
	497	2	26.0	50.0	0.0	0.0	5	1.0	0.0	500.0	5	1.1	0.9				
	498	2	26.0	50.0	0.0	0.0	5	1.0	0.0	500.0	5	1.1	0.9				
	499	1	0.0	0.0	0.0	0.0	5	1.0	0.0	345.0	5	1.1	0.9				
	500	1	0.0	0.0	0.0	0.0	5	1.0	0.0	500.0	5	1.1	0.9				
	501	1	0.0	0.0	0.0	0.0	5	1.0	0.0	345.0	5	1.1	0.9				
	502	2	0.0	0.0	0.0	0.0	5	1.0	0.0	345.0	5	1.1	0.9				
	503	1	0.0	0.0	0.0	0.0	5	1.0	0.0	500.0	5	1.1	0.9				
	504	2	0.0	0.0	0.0	0.0	5	1.0	0.0	500.0	5	1.1	0.9				
	505	1	0.0	2.25	0.0	44.01	5	1.0	0.0	500.0	5	1.1	0.9				
	506	1	0.0	0.0	0.0	0.0	5	1.0	0.0	345.0	5	1.1	0.9				
	507	1	0.0	0.0	0.0	0.0	5	1.0	0.0	345.0	5	1.1	0.9				
	508	1	24.96	41.61	0.0	0.0	5	1.0	0.0	345.0	5	1.1	0.9				
	509	1	0.0	0.0	0.0	0.0	5	1.0	0.0	345.0	5	1.1	0.9				
	510	1	0.0	0.0	0.0	0.0	5	1.0	0.0	345.0	5	1.1	0.9				
	511	1	0.0	0.0	0.0	16.06	5	1.0	0.0	345.0	5	1.1	0.9				
	512	1	0.0	0.0	0.0	0.0	5	1.0	0.0	345.0	5	1.1	0.9				
	513	1	0.0	0.0	0.0	29.99	5	1.0	0.0	345.0	5	1.1	0.9				
	514	1	0.0	0.0	0.0	-0.22	5	1.0	0.0	345.0	5	1.1	0.9				
	515	2	0.0	0.0	0.0	0.0	5	1.0	0.0	345.0	5	1.1	0.9				
	516	1	0.0	0.0	0.0	76.0	5	1.0	0.0	500.0	5	1.1	0.9				
	517	2	0.0	0.0	0.0	0.0	5	1.0	0.0	345.0	5	1.1	0.9				
	518	1	59.4	11.61	0.0	-17.46	5	1.0	0.0	345.0	5	1.1	0.9				
	519	1	0.0	0.0	0.0	-34.38	5	1.0	0.0	345.0	5	1.1	0.9				
	520	1	0.0	-3.42	0.0	0.0	5	1.0	0.0	138.0	5	1.1	0.9				
	521	1	9.99	5.11	0.0	0.0	5	1.0	0.0	138.0	5	1.1	0.9				
	522	1	7.68	4.5	0.0	0.0	5	1.0	0.0	138.0	5	1.1	0.9				
	523	1	4.99	1.2	0.0	0.0	5	1.0	0.0	138.0	5	1.1	0.9				
	524	1	6.79	2.5	0.0	0.0	5	1.0	0.0	138.0	5	1.1	0.9				
	525	1	0.0	0.0	0.0	-1.5700000000000003	5	1.0	0.0	138.0	5	1.1	0.9				
	526	1	2.47	0.8	0.0	0.0	5	1.0	0.0	138.0	5	1.1	0.9				
	527	1	8.2	1.8000000000000003	0.0	0.0	5	1.0	0.0	138.0	5	1.1	0.9				
	528	1	10.97	0.0	0.0	0.0	5	1.0	0.0	138.0	5	1.1	0.9				
	529	1	9.61	0.0	0.0	0.0	5	1.0	0.0	138.0	5	1.1	0.9				
	530	1	0.0	0.0	0.0	45.0	5	1.0	0.0	16.0	5	1.1	0.9				