%% MATPOWER Case Format : Version 2
function mpc = pglib_opf_case300_ieee
mpc.version = '2';

%%-----  Power Flow Data  -----%%
%% system MVA base
mpc.baseMVA = 100.0;
%% bus data
%    bus_i    type    Pd    Qd    Gs    Bs    area    Vm    Va    baseKV    zone    Vmax    Vmin
mpc.bus = [
	1	1	90.0	49.0	0.0	0.0	1	1.0	0.0	115.0	1	1.06	0.94				
	2	1	56.00000000000001	15.0	0.0	0.0	1	1.0	0.0	115.0	1	1.06	0.94				
	3	1	20.0	0.0	0.0	0.0	1	1.0	0.0	230.0	1	1.06	0.94				
	4	1	0.0	0.0	0.0	0.0	1	1.0	0.0	345.0	1	1.06	0.94				
	5	1	353.0	130.0	0.0	0.0	1	1.0	0.0	115.0	1	1.06	0.94				
	6	1	120.0	41.0	0.0	0.0	1	1.0	0.0	115.0	1	1.06	0.94				
	7	1	0.0	0.0	0.0	0.0	1	1.0	0.0	230.0	1	1.06	0.94				
	8	2	63.0	14.000000000000002	0.0	0.0	1	1.0	0.0	115.0	1	1.06	0.94				
	9	1	96.0	43.0	0.0	0.0	1	1.0	0.0	115.0	1	1.06	0.94				
	10	2	153.0	33.0	0.0	0.0	1	1.0	0.0	230.0	1	1.06	0.94				
	11	1	83.0	21.0	0.0	0.0	1	1.0	0.0	115.0	1	1.06	0.94				
	12	1	0.0	0.0	0.0	0.0	1	1.0	0.0	230.0	1	1.06	0.94				
	13	1	57.99999999999999	10.0	0.0	0.0	1	1.0	0.0	115.0	1	1.06	0.94				
	14	1	160.0	60.0	0.0	0.0	1	1.0	0.0	115.0	1	1.06	0.94				
	15	1	126.70000000000002	23.0	0.0	0.0	1	1.0	0.0	115.0	1	1.06	0.94				
	16	1	0.0	0.0	0.0	0.0	1	1.0	0.0	345.0	1	1.06	0.94				
	17	1	561.0	220.00000000000003	0.0	0.0	1	1.0	0.0	115.0	1	1.06	0.94				
	19	1	0.0	0.0	0.0	0.0	1	1.0	0.0	230.0	1	1.06	0.94				
	20	2	605.0	120.0	0.0	0.0	1	1.0	0.0	115.0	1	1.06	0.94				
	21	1	77.0	1.0	0.0	0.0	1	1.0	0.0	230.0	1	1.06	0.94				
	22	1	81.0	23.0	0.0	0.0	1	1.0	0.0	115.0	1	1.06	0.94				
	23	1	21.0	7.000000000000001	0.0	0.0	1	1.0	0.0	115.0	1	1.06	0.94				
	24	1	0.0	0.0	0.0	0.0	1	1.0	0.0	230.0	1	1.06	0.94				
	25	1	45.0	12.0	0.0	0.0	1	1.0	0.0	115.0	1	1.06	0.94				
	26	1	28.000000000000004	9.0	0.0	0.0	1	1.0	0.0	115.0	1	1.06	0.94				
	27	1	69.0	13.0	0.0	0.0	1	1.0	0.0	115.0	1	1.06	0.94				
	33	1	55.00000000000001	6.0	0.0	0.0	1	1.0	0.0	115.0	1	1.06	0.94				
	34	1	0.0	0.0	0.0	0.0	1	1.0	0.0	345.0	1	1.06	0.94				
	35	1	0.0	0.0	0.0	0.0	1	1.0	0.0	115.0	1	1.06	0.94				
	36	1	0.0	0.0	0.0	0.0	1	1.0	0.0	230.0	1	1.06	0.94				
	37	1	85.0	32.0	0.0	0.0	1	1.0	0.0	115.0	1	1.06	0.94				
	38	1	155.0	18.0	0.0	0.0	1	1.0	0.0	115.0	1	1.06	0.94				
	39	1	0.0	0.0	0.0	0.0	1	1.0	0.0	345.0	1	1.06	0.94				
	40	1	46.0	-21.0	0.0	0.0	1	1.0	0.0	115.0	1	1.06	0.94				
	41	1	86.0	0.0	0.0	0.0	1	1.0	0.0	115.0	1	1.06	0.94				
	42	1	0.0	0.0	0.0	0.0	1	1.0	0.0	345.0	1	1.06	0.94				
	43	1	39.0	9.0	0.0	0.0	1	1.0	0.0	115.0	1	1.06	0.94				
	44	1	195.0	28.999999999999996	0.0	0.0	1	1.0	0.0	115.0	1	1.06	0.94				
	45	1	0.0	0.0	0.0	0.0	1	1.0	0.0	230.0	1	1.06	0.94				
	46	1	0.0	0.0	0.0	0.0	1	1.0	0.0	345.0	1	1.06	0.94				
	47	1	57.99999999999999	11.8	0.0	0.0	1	1.0	0.0	115.0	1	1.06	0.94				
	48	1	41.0	19.0	0.0	0.0	1	1.0	0.0	115.0	1	1.06	0.94				
	49	1	92.0	26.0	0.0	0.0	1	1.0	0.0	115.0	1	1.06	0.94				
	51	1	-5.0	5.0	0.0	0.0	1	1.0	0.0	115.0	1	1.06	0.94				
	52	1	61.0	28.000000000000004	0.0	0.0	1	1.0	0.0	115.0	1	1.06	0.94				
	53	1	69.0	3.0	0.0	0.0	1	1.0	0.0	115.0	1	1.06	0.94				
	54	1	10.0	1.0	0.0	0.0	1	1.0	0.0	115.0	1	1.06	0.94				
	55	1	22.0	10.0	0.0	0.0	1	1.0	0.0	115.0	1	1.06	0.94				
	57	1	98.0	20.0	0.0	0.0	1	1.0	0.0	115.0	1	1.06	0.94				
	58	1	14.000000000000002	1.0	0.0	0.0	1	1.0	0.0	115.0	1	1.06	0.94				
	59	1	218.00000000000003	106.0	0.0	0.0	1	1.0	0.0	115.0	1	1.06	0.94				
	60	1	0.0	0.0	0.0	0.0	1	1.0	0.0	230.0	1	1.06	0.94				
	61	1	227.0	110.00000000000001	0.0	0.0	1	1.0	0.0	115.0	1	1.06	0.94				
	62	1	0.0	0.0	0.0	0.0	1	1.0	0.0	230.0	1	1.06	0.94				
	63	2	70.0	30.0	0.0	0.0	1	1.0	0.0	115.0	1	1.06	0.94				
	64	1	0.0	0.0	0.0	0.0	1	1.0	0.0	230.0	1	1.06	0.94				
	69	1	0.0	0.0	0.0	0.0	1	1.0	0.0	115.0	1	1.06	0.94				
	70	1	56.00000000000001	20.0	0.0	0.0	1	1.0	0.0	115.0	1	1.06	0.94				
	71	1	115.99999999999999	38.0	0.0	0.0	1	1.0	0.0	115.0	1	1.06	0.94				
	72	1	56.99999999999999	19.0	0.0	0.0	1	1.0	0.0	115.0	1	1.06	0.94				
	73	1	224.00000000000003	71.0	0.0	0.0	1	1.0	0.0	115.0	1	1.06	0.94				
	74	1	0.0	0.0	0.0	0.0	1	1.0	0.0	230.0	1	1.06	0.94				
	76	2	208.0	107.0	0.0	0.0	1	1.0	0.0	115.0	1	1.06	0.94				
	77	1	74.0	28.000000000000004	0.0	0.0	1	1.0	0.0	115.0	1	1.06	0.94				
	78	1	0.0	0.0	0.0	0.0	1	1.0	0.0	115.0	1	1.06	0.94				
	79	1	48.0	14.000000000000002	0.0	0.0	1	1.0	0.0	115.0	1	1.06	0.94				
	80	1	28.000000000000004	7.000000000000001	0.0	0.0	1	1.0	0.0	115.0	1	1.06	0.94				
	81	1	0.0	0.0	0.0	0.0	1	1.0	0.0	345.0	1	1.06	0.94				
	84	2	37.0	13.0	0.0	0.0	1	1.0	0.0	115.0	1	1.06	0.94				
	85	1	0.0	0.0	0.0	0.0	1	1.0	0.0	230.0	1	1.06	0.94				
	86	1	0.0	0.0	0.0	0.0	1	1.0	0.0	230.0	1	1.06	0.94				
	87	1	0.0	0.0	0.0	0.0	1	1.0	0.0	230.0	1	1.06	0.94				
	88	1	0.0	0.0	0.0	0.0	1	1.0	0.0	230.0	1	1.06	0.94				
	89	1	44.2	0.0	0.0	0.0	1	1.0	0.0	115.0	1	1.06	0.94				
	90	1	66.0	0.0	0.0	0.0	1	1.0	0.0	115.0	1	1.06	0.94				
	91	2	17.4	0.0	0.0	0.0	1	1.0	0.0	115.0	1	1.06	0.94				
	92	2	15.8	0.0	0.0	0.0	1	1.0	0.0	115.0	1	1.06	0.94				
	94	1	60.3	0.0	0.0	0.0	1	1.0	0.0	115.0	1	1.06	0.94				
	97	1	39.9	0.0	0.0	0.0	1	1.0	0.0	115.0	1	1.06	0.94				
	98	2	66.7	0.0	0.0	0.0	1	1.0	0.0	115.0	1	1.06	0.94				
	99	1	83.5	0.0	0.0	0.0	1	1.0	0.0	115.0	1	1.06	0.94				
	100	1	0.0	0.0	0.0	0.0	1	1.0	0.0	115.0	1	1.06	0.94				
	102	1	77.8	0.0	0.0	0.0	1	1.0	0.0	115.0	1	1.06	0.94				
	103	1	32.0	0.0	0.0	0.0	1	1.0	0.0	115.0	1	1.06	0.94				
	104	1	8.6	0.0	0.0	0.0	1	1.0	0.0	115.0	1	1.06	0.94				
	105	1	49.6	0.0	0.0	0.0	1	1.0	0.0	115.0	1	1.06	0.94				
	107	1	4.6	0.0	0.0	0.0	1	1.0	0.0	115.0	1	1.06	0.94				
	108	2	112.1	0.0	0.0	0.0	1	1.0	0.0	115.0	1	1.06	0.94				
	109	1	30.7	0.0	0.0	0.0	1	1.0	0.0	115.0	1	1.06	0.94				
	110	1	63.0	0.0	0.0	0.0	1	1.0	0.0	115.0	1	1.06	0.94				
	112	1	19.6	0.0	0.0	0.0	1	1.0	0.0	115.0	1	1.06	0.94				
	113	1	26.200000000000003	0.0	0.0	0.0	1	1.0	0.0	115.0	1	1.06	0.94				
	114	1	18.2	0.0	0.0	0.0	1	1.0	0.0	115.0	1	1.06	0.94				
	115	1	0.0	0.0	0.0	0.0	1	1.0	0.0	115.0	2	1.06	0.94				
	116	1	0.0	0.0	0.0	0.0	1	1.0	0.0	115.0	2	1.06	0.94				
	117	1	0.0	0.0	0.0	325.0	1	1.0	0.0	115.0	2	1.06	0.94				
	118	1	14.099999999999998	650.0	0.0	0.0	1	1.0	0.0	115.0	2	1.06	0.94				
	119	2	0.0	0.0	0.0	0.0	1	1.0	0.0	115.0	2	1.06	0.94				
	120	1	777.0	215.0	0.0	55.00000000000001	1	1.0	0.0	115.0	2	1.06	0.94				
	121	1	535.0	55.00000000000001	0.0	0.0	1	1.0	0.0	115.0	2	1.06	0.94				
	122	1	229.1	11.8	0.0	0.0	1	1.0	0.0	115.0	2	1.06	0.94				
	123	1	78.0	1.4	0.0	0.0	1	1.0	0.0	115.0	2	1.06	0.94				
	124	2	276.4	59.3	0.0	0.0	1	1.0	0.0	115.0	2	1.06	0.94				
	125	2	514.8	82.7	0.0	0.0	1	1.0	0.0	115.0	2	1.06	0.94				
	126	1	57.9	5.1	0.0	0.0	1	1.0	0.0	115.0	2	1.06	0.94				
	127	1	380.8	37.0	0.0	0.0	1	1.0	0.0	230.0	2	1.06	0.94				
	128	1	0.0	0.0	0.0	0.0	1	1.0	0.0	230.0	2	1.06	0.94				
	129	1	0.0	0.0	0.0	0.0	1	1.0	0.0	230.0	2	1.06	0.94				
	130	1	0.0	0.0	0.0	0.0	1	1.0	0.0	230.0	2	1.06	0.94				
	131	1	0.0	0.0	0.0	0.0	1	1.0	0.0	230.0	2	1.06	0.94				
	132	1	0.0	0.0	0.0	0.0	1	1.0	0.0	230.0	2	1.06	0.94				
	133	1	0.0	0.0	0.0	0.0	1	1.0	0.0	230.0	2	1.06	0.94				
	134	1	0.0	0.0	0.0	0.0	1	1.0	0.0	230.0	2	1.06	0.94				
	135	1	169.2	41.6	0.0	0.0	1	1.0	0.0	230.0	2	1.06	0.94				
	136	1	55.2	18.2	0.0	0.0	1	1.0	0.0	230.0	2	1.06	0.94				
	137	1	273.6	99.8	0.0	0.0	1	1.0	0.0	230.0	2	1.06	0.94				
	138	2	1019.2	135.2	0.0	0.0	1	1.0	0.0	230.0	2	1.06	0.94				
	139	1	595.0	83.3	0.0	0.0	1	1.0	0.0	115.0	2	1.06	0.94				
	140	1	387.7	114.7	0.0	0.0	1	1.0	0.0	230.0	2	1.06	0.94				
	141	2	145.0	57.99999999999999	0.0	0.0	1	1.0	0.0	230.0	2	1.06	0.94				
	142	1	56.49999999999999	24.5	0.0	0.0	1	1.0	0.0	230.0	2	1.06	0.94				
	143	2	89.5	35.5	0.0	0.0	1	1.0	0.0	230.0	2	1.06	0.94				
	144	1	0.0	0.0	0.0	0.0	1	1.0	0.0	230.0	2	1.06	0.94				
	145	1	24.0	14.000000000000002	0.0	0.0	1	1.0	0.0	230.0	2	1.06	0.94				
	146	2	0.0	0.0	0.0	0.0	1	1.0	0.0	230.0	2	1.06	0.94				
	147	2	0.0	0.0	0.0	0.0	1	1.0	0.0	230.0	2	1.06	0.94				
	148	1	63.0	25.0	0.0	0.0	1	1.0	0.0	230.0	2	1.06	0.94				
	149	2	0.0	0.0	0.0	0.0	1	1.0	0.0	230.0	2	1.06	0.94				
	150	1	0.0	0.0	0.0	0.0	1	1.0	0.0	230.0	2	1.06	0.94				
	151	1	0.0	0.0	0.0	0.0	1	1.0	0.0	230.0	2	1.06	0.94				
	152	2	17.0	9.0	0.0	0.0	1	1.0	0.0	230.0	2	1.06	0.94				
	153	2	0.0	0.0	0.0	0.0	1	1.0	0.0	230.0	2	1.06	0.94				
	154	1	70.0	5.0	0.0	34.5	1	1.0	0.0	115.0	2	1.06	0.94				
	155	1	200.0	50.0	0.0	0.0	1	1.0	0.0	230.0	2	1.06	0.94				
	156	2	75.0	50.0	0.0	0.0	1	1.0	0.0	115.0	2	1.06	0.94				
	157	1	123.50000000000001	-24.3	0.0	0.0	1	1.0	0.0	230.0	2	1.06	0.94				
	158	1	0.0	0.0	0.0	0.0	1	1.0	0.0	230.0	2	1.06	0.94				
	159	1	33.0	16.5	0.0	0.0	1	1.0	0.0	230.0	2	1.06	0.94				
	160	1	0.0	0.0	0.0	0.0	1	1.0	0.0	230.0	2	1.06	0.94				
	161	1	35.0	15.0	0.0	0.0	1	1.0	0.0	230.0	2	1.06	0.94				
	162	1	85.0	24.0	0.0	0.0	1	1.0	0.0	230.0	2	1.06	0.94				
	163	1	0.0	0.4	0.0	0.0	1	1.0	0.0	230.0	2	1.06	0.94				
	164	1	0.0	0.0	0.0	-212.0	1	1.0	0.0	230.0	2	1.06	0.94				
	165	1	0.0	0.0	0.0	0.0	1	1.0	0.0	230.0	2	1.06	0.94				
	166	1	0.0	0.0	0.0	-103.0	1	1.0	0.0	230.0	2	1.06	0.94				
	167	1	299.9	95.7	0.0	0.0	1	1.0	0.0	230.0	2	1.06	0.94				
	168	1	0.0	0.0	0.0	0.0	1	1.0	0.0	230.0	2	1.06	0.94				
	169	1	0.0	0.0	0.0	0.0	1	1.0	0.0	230.0	2	1.06	0.94				
	170	2	481.80000000000007	204.99999999999997	0.0	0.0	1	1.0	0.0	115.0	2	1.06	0.94				
	171	2	763.6	291.1	0.0	0.0	1	1.0	0.0	115.0	2	1.06	0.94				
	172	1	26.5	0.0	0.0	0.0	1	1.0	0.0	115.0	2	1.06	0.94				
	173	1	163.5	43.0	0.0	53.0	1	1.0	0.0	115.0	2	1.06	0.94				
	174	1	0.0	0.0	0.0	0.0	1	1.0	0.0	115.0	2	1.06	0.94				
	175	1	176.0	83.0	0.0	0.0	1	1.0	0.0	115.0	2	1.06	0.94				
	176	2	5.0	4.0	0.0	0.0	1	1.0	0.0	115.0	2	1.06	0.94				
	177	2	28.000000000000004	12.0	0.0	0.0	1	1.0	0.0	115.0	2	1.06	0.94				
	178	1	427.4	173.6	0.0	0.0	1	1.0	0.0	115.0	2	1.06	0.94				
	179	1	74.0	28.999999999999996	0.0	45.0	1	1.0	0.0	115.0	2	1.06	0.94				
	180	1	69.5	49.3	0.0	0.0	1	1.0	0.0	115.0	2	1.06	0.94				
	181	1	73.4	0.0	0.0	0.0	1	1.0	0.0	230.0	2	1.06	0.94				
	182	1	240.7	89.0	0.0	0.0	1	1.0	0.0	230.0	2	1.06	0.94				
	183	1	40.0	4.0	0.0	0.0	1	1.0	0.0	115.0	2	1.06	0.94				
	184	1	136.8	16.6	0.0	0.0	1	1.0	0.0	230.0	2	1.06	0.94				
	185	2	0.0	0.0	0.0	0.0	1	1.0	0.0	230.0	2	1.06	0.94				
	186	2	59.8	24.3	0.0	0.0	1	1.0	0.0	230.0	2	1.06	0.94				
	187	2	59.8	24.3	0.0	0.0	1	1.0	0.0	230.0	2	1.06	0.94				
	188	1	182.6	43.6	0.0	0.0	1	1.0	0.0	230.0	2	1.06	0.94				
	189	1	7.000000000000001	2.0	0.0	0.0	1	1.0	0.0	66.0	3	1.06	0.94				
	190	2	0.0	0.0	0.0	-150.0	1	1.0	0.0	345.0	3	1.06	0.94				
	191	2	488.99999999999994	53.0	0.0	0.0	1	1.0	0.0	230.0	3	1.06	0.94				
	192	1	800.0	72.0	0.0	0.0	1	1.0	0.0	230.0	3	1.06	0.94				
	193	1	0.0	0.0	0.0	0.0	1	1.0	0.0	66.0	3	1.06	0.94				
	194	1	0.0	0.0	0.0	0.0	1	1.0	0.0	345.0	3	1.06	0.94				
	195	1	0.0	0.0	0.0	0.0	1	1.0	0.0	345.0	3	1.06	0.94				
	196	1	10.0	3.0	0.0	0.0	1	1.0	0.0	115.0	3	1.06	0.94				
	197	1	43.0	14.000000000000002	0.0	0.0	1	1.0	0.0	115.0	3	1.06	0.94				
	198	2	64.0	21.0	0.0	0.0	1	1.0	0.0	115.0	3	1.06	0.94				
	199	1	35.0	12.0	0.0	0.0	1	1.0	0.0	115.0	3	1.06	0.94				
	200	1	27.0	12.0	0.0	0.0	1	1.0	0.0	115.0	3	1.06	0.94				
	201	1	41.0	14.000000000000002	0.0	0.0	1	1.0	0.0	66.0	1	1.06	0.94				
	202	1	38.0	13.0	0.0	0.0	1	1.0	0.0	66.0	3	1.06	0.94				
	203	1	42.0	14.000000000000002	0.0	0.0	1	1.0	0.0	115.0	3	1.06	0.94				
	204	1	72.0	24.0	0.0	0.0	1	1.0	0.0	66.0	3	1.06	0.94				
	205	1	0.0	-5.0	0.0	0.0	1	1.0	0.0	66.0	3	1.06	0.94				
	206	1	12.0	2.0	0.0	0.0	1	1.0	0.0	66.0	3	1.06	0.94				
	207	1	-21.0	-14.2	0.0	0.0	1	1.0	0.0	66.0	1	1.06	0.94				
	208	1	7.000000000000001	2.0	0.0	0.0	1	1.0	0.0	66.0	3	1.06	0.94				
	209	1	38.0	13.0	0.0	0.0	1	1.0	0.0	66.0	3	1.06	0.94				
	210	1	0.0	0.0	0.0	0.0	1	1.0	0.0	115.0	3	1.06	0.94				
	211	1	96.0	7.000000000000001	0.0	0.0	1	1.0	0.0	115.0	3	1.06	0.94				
	212	1	0.0	0.0	0.0	0.0	1	1.0	0.0	138.0	3	1.06	0.94				
	213	2	0.0	0.0	0.0	0.0	1	1.0	0.0	16.5	3	1.06	0.94				
	214	1	22.0	16.0	0.0	0.0	1	1.0	0.0	138.0	3	1.06	0.94				
	215	1	47.0	26.0	0.0	0.0	1	1.0	0.0	138.0	3	1.06	0.94				
	216	1	176.0	105.0	0.0	0.0	1	1.0	0.0	138.0	3	1.06	0.94				
	217	1	100.0	75.0	0.0	0.0	1	1.0	0.0	138.0	3	1.06	0.94				
	218	1	131.0	96.0	0.0	0.0	1	1.0	0.0	138.0	3	1.06	0.94				
	219	1	0.0	0.0	0.0	0.0	1	1.0	0.0	345.0	3	1.06	0.94				
	220	2	285.0	100.0	0.0	0.0	1	1.0	0.0	138.0	3	1.06	0.94				
	221	2	171.0	70.0	0.0	0.0	1	1.0	0.0	138.0	3	1.06	0.94				
	222	2	328.0	188.0	0.0	0.0	1	1.0	0.0	20.0	3	1.06	0.94				
	223	1	428.0	231.99999999999997	0.0	0.0	1	1.0	0.0	138.0	3	1.06	0.94				
	224	1	173.0	99.0	0.0	0.0	1	1.0	0.0	230.0	3	1.06	0.94				
	225	1	409.99999999999994	40.0	0.0	0.0	1	1.0	0.0	230.0	3	1.06	0.94				
	226	1	0.0	0.0	0.0	0.0	1	1.0	0.0	230.0	3	1.06	0.94				
	227	2	538.0	369.0	0.0	0.0	1	1.0	0.0	27.0	3	1.06	0.94				
	228	1	223.0	148.0	0.0	0.0	1	1.0	0.0	138.0	3	1.06	0.94				
	229	1	96.0	46.0	0.0	0.0	1	1.0	0.0	138.0	3	1.06	0.94				
	230	2	0.0	0.0	0.0	0.0	1	1.0	0.0	20.0	3	1.06	0.94				
	231	1	159.0	107.0	0.0	-300.0	1	1.0	0.0	345.0	3	1.06	0.94				
	232	1	448.00000000000006	143.0	0.0	0.0	1	1.0	0.0	138.0	3	1.06	0.94				
	233	2	404.0	212.0	0.0	0.0	1	1.0	0.0	66.0	3	1.06	0.94				
	234	1	572.0	244.0	0.0	0.0	1	1.0	0.0	138.0	3	1.06	0.94				
	235	1	269.0	157.0	0.0	0.0	1	1.0	0.0	138.0	3	1.06	0.94				
	236	2	0.0	0.0	0.0	0.0	1	1.0	0.0	20.0	3	1.06	0.94				
	237	1	0.0	0.0	0.0	0.0	1	1.0	0.0	345.0	3	1.06	0.94				
	238	2	254.99999999999997	149.0	0.0	-150.0	1	1.0	0.0	138.0	3	1.06	0.94				
	239	2	0.0	0.0	0.0	0.0	1	1.0	0.0	138.0	3	1.06	0.94				
	240	1	0.0	0.0	0.0	-140.0	1	1.0	0.0	230.0	3	1.06	0.94				
	241	2	0.0	0.0	0.0	0.0	1	1.0	0.0	20.0	3	1.06	0.94				
	242	2	0.0	0.0	0.0	0.0	1	1.0	0.0	138.0	3	1.06	0.94				
	243	2	8.0	3.0	0.0	0.0	1	1.0	0.0	66.0	3	1.06	0.94				
	244	1	0.0	0.0	0.0	0.0	1	1.0	0.0	66.0	3	1.06	0.94				
	245	1	61.0	30.0	0.0	0.0	1	1.0	0.0	66.0	3	1.06	0.94				
	246	1	77.0	33.0	0.0	0.0	1	1.0	0.0	66.0	3	1.06	0.94				
	247	1	61.0	30.0	0.0	0.0	1	1.0	0.0	66.0	3	1.06	0.94				
	248	1	28.999999999999996	14.000000000000002	0.0	45.6	1	1.0	0.0	66.0	3	1.06	0.94				
	249	1	28.999999999999996	14.000000000000002	0.0	0.0	1	1.0	0.0	66.0	3	1.06	0.94				
	250	1	-23.0	-17.0	0.0	0.0	1	1.0	0.0	66.0	3	1.06	0.94				
	281	1	-33.1	-29.4	0.0	0.0	1	1.0	0.0	230.0	3	1.06	0.94				
	319	1	115.8	-24.0	0.0	0.0	1	1.0	0.0	230.0	1	1.06	0.94				
	320	1	2.4	-12.6	0.0	0.0	1	1.0	0.0	115.0	1	1.06	0.94				
	322	1	2.4	-3.9	0.0	0.0	1	1.0	0.0	115.0	1	1.06	0.94				
	323	1	-14.899999999999999	26.5	0.0	0.0	1	1.0	0.0	230.0	1	1.06	0.94				
	324	1	24.7	-1.2	0.0	0.0	1	1.0	0.0	115.0	1	1.06	0.94				
	526	1	145.3	-34.9	0.0	0.0	1	1.0	0.0	115.0	1	1.06	0.94				
	528	1	28.1	-20.5	0.0	0.0	1	1.0	0.0	115.0	1	1.06	0.94				
	531	1	14.000000000000002	2.5	0.0	0.0	1	1.0	0.0	115.0	1	1.06	0.94				
	552	1	-11.1	-1.4	0.0	0.0	1	1.0	0.0	115.0	1	1.06	0.94				
	562	1	50.5	17.4	0.0	0.0	1	1.0	0.0	230.0	1	1.06	0.94				
	609	1	29.600000000000005	0.6	0.0	0.0	1	1.0	0.0	115.0	1	1.06	0.94				
	664	1	-113.7	76.7	0.0	0.0	1	1.0	0.0	345.0	3	1.06	0.94				
	1190	1	100.31000000000002	29.17	0.0	0.0	1	1.0	0.0	86.0	2	1.06	0.94				
	1200	1	-100.0	34.17	0.0	0.0	1	1.0	0.0	86.0	2	1.06	0.94				
	1201	1	0.0	0.0	0.0	0.0	1	1.0	0.0	115.0	2	1.06	0.94				
	2040	1	0.0	0.0	0.0	0.0	1	1.0	0.0	115.0	3	1.06	0.94				
	7001	2	0.0	0.0	0.0	0.0	1	1.0	0.0	13.8	1	1.06	0.94				
	7002	2	0.0	0.0	0.0	0.0	1	1.0	0.0	13.8	1	1.06	0.94				
	7003	2	0.0	0.0	0.0	0.0	1	1.0	0.0	13.8	1	1.06	0.94				
	7011	2	0.0	0.0	0.0	0.0	1	1.0	0.0	13.8	1	1.06	0.94				
	7012	2	0.0	0.0	0.0	0.0	1	1.0	0.0	13.8	1	1.06	0.94				
	7017	2	0.0	0.0	0.0	0.0	1	1.0	0.0	13.8	1	1.06	0.94				
	7023	2	0.0	0.0	0.0	0.0	1	1.0	0.0	13.8	1	1.06	0.94				
	7024	2	0.0	0.0	0.0	0.0	1	1.0	0.0	13.8	1	1.06	0.94				
	7039	2	0.0	0.0	0.0	0.0	1	1.0	0.0	20.0	1	1.06	0.94				
	7044	2	0.0	0.0	0.0	0.0	1	1.0	0.0	13.8	1	1.06	0.94				
	7049	3	0.0	0.0	0.0	0.0	1	1.0	0.0	13.8	1	1.06	0.94				
	7055	2	0.0	0.0	0.0	0.0	1	1.0	0.0	13.8	1	1.06	0.94				
	7057	2	0.0	0.0	0.0	0.0	1	1.0	0.0	13.8	1	1.06	0.94				
	7061	2	0.0	0.0	0.0	0.0	1	1.0	0.0	13.8	1	1.06	0.94				
	7062	2	0.0	0.0	0.0	0.0	1	1.0	0.0	13.8	1	1.06	0.94				
	7071	2	0.0	0.0	0.0	0.0	1	1.0	0.0	13.8	1	1.06	0.94				
	7130	2	0.0	0.0	0.0	0.0	1	1.0	0.0	13.8	2	1.06	0.94				
	7139	2	0.0	0.0	0.0	0.0	1	1.0	0.0	13.8	2	1.06	0.94				
	7166	2	0.0	0.0	0.0	0.0	1	1.0	0.0	13.8	2	1.06	0.94				
	9001	1	0.0	0.0	0.0	0.0	1	1.0	0.0	115.0	9	1.06	0.94				
	9002	2	4.2	0.0	0.0	0.0	1	1.0	0.0	6.6	9	1.06	0.94				
	9003	1	2.71	0.9399999999999998	0.14	2.4	1	1.0	0.0	6.6	9	1.06	0.94				
	9004	1	0.86	0.28	0.0	0.0	1	1.0	0.0	6.6	9	1.06	0.94				
	9005	1	0.0	0.0	0.0	0.0	1	1.0	0.0	115.0	9	1.06	0.94				
	9006	1	0.0	0.0	0.0	0.0	1	1.0	0.0	6.6	9	1.06	0.94				
	9007	1	0.0	0.0	0.0	0.0	1	1.0	0.0	6.6	9	1.06	0.94				
	9012	1	0.0	0.0	0.0	0.0	1	1.0	0.0	6.6	9	1.06	0.94				
	9021	1	4.75	1.56	0.0	0.0	1	1.0	0.0	6.6	9	1.06	0.94				
	9022	1	1.53	0.53	0.08	0.0	1	1.0	0.0	0.6	9	1.06	0.94				
	9023	1	0.0	0.0	0.0	0.0	1	1.0	0.0	6.6	9	1.06	0.94				
	9024	1	1.35	0.4699999999999999	0.07	0.0	1	1.0	0.0	0.6	9	1.06	0.94				
	9025	1	0.45000000000000007	0.16	0.02	0.0	1	1.0	0.0	0.6	9	1.06	0.94				
	9026	1	0.45000000000000007	0.16	0.02	0.0	1	1.0	0.0	0.6	9	1.06	0.94				
	9031	1	1.8399999999999999	0.64	0.1	0.0	1	1.0	0.0	0.6	9	1.06	0.94				
	9032	1	1.39	0.48	0.07	0.0	1	1.0	0.0	0.6	9	1.06	0.94				
	9033	1	1.8900000000000001	0.65	0.1	0.0	1	1.0	0.0	0.6	9	1.06	0.94				
	9034	1	1.55	0.54	0.08	1.72	1	1.0	0.0	0.6	9	1.06	0.94				
	9035	1	1.66	0.58	0.09	0.0	1	1.0	0.0	0.6	9	1.06	0.94				
	9036	1	3.03	1.0	0.0	0.0	1	1.0	0.0	2.3	9	1.06	0.94				
	9037	1	1.86	0.64	0.1	0.0	1	1.0	0.0	0.6	9	1.06	0.94				
	9038	1	2.58	0.89	0.14	0.0	1	1.0	0.0	0.6	9	1.06	0.94				
	9041	1	1.01	0.35	0.05	0.0	1	1.0	0.0	0.6	9	1.06	0.94				
	9042	1	0.8100000000000002	0.28	0.04	0.0	1	1.0	0.0	0.6	9	1.06	0.94				
	9043	1	1.6	0.52	0.0	0.0	1	1.0	0.0	2.3	9	1.06	0.94				
	9044	1	0.0	0.0	0.0	0.0	1	1.0	0.0	6.6	9	1.06	0.94				
	9051	2	35.81	0.0	0.0	0.0	1	1.0	0.0	13.8	9	1.06	0.94				
	9052	1	30.0	23.0	0.0	0.0	1	1.0	0.0	13.8	9	1.06	0.94				
	9053	2	26.479999999999997	0.0	0.0	0.0	1	1.0	0.0	13.8	9	1.06	0.94				
	9054	2	0.0	0.0	0.0	0.0	1	1.0	0.0	13.8	9	1.06	0.94				
	9055	2	0.0	0.0	0.0	0.0	1	1.0	0.0	13.8	9	1.06	0.94				
	9071	1	1.02	0.35	0.05	0.0	1	1.0	0.0	0.6	9	1.06	0.94				
	9072	1	1.02	0.35	0.05	0.0	1	1.0	0.0	0.6	9	1.06	0.94				
	9121	1	3.8	1.25	0.0	0.0	1	1.0	0.0	6.6	9	1.06	0.94				
	9533	1	1.19	0.4099999999999999	0.1	0.0	1	1.0	0.0	2.3	9	1.06	0.94				
];

%% generator data
%    bus    Pg    Qg    Qmax    Qmin    Vg    mBase    status    Pmax    Pmin    Pc1    Pc2    Qc1min    Qc1max    Qc2min    Qc2max    ramp_agc    ramp_10    ramp_30    ramp_q    apf
mpc.gen = [
	8	0.0	0.0	10.0	-10.0	1.0	100.0	1	0.0	0.0															
	10	0.0	0.0	20.0	-20.0	1.0	100.0	1	0.0	0.0															
	20	0.0	0.0	20.0	-20.0	1.0	100.0	1	0.0	0.0															
	63	0.0	0.0	25.0	-25.0	1.0	100.0	1	0.0	0.0															
	76	0.0	23.5	35.0	12.0	1.0	100.0	1	0.0	0.0															
	84	724.0	0.0	240.0	-240.0	1.0	100.0	1	1448.0	0.0															
	91	92.5	41.0	93.0	-11.0	1.0	100.0	1	185.0	0.0															
	92	180.0	0.0	153.0	-153.0	1.0	100.0	1	360.0	0.0															
	98	46.5	8.5	47.0	-30.0	1.0	100.0	1	93.0	0.0															
	108	98.5	26.5	77.0	-24.0	1.0	100.0	1	197.0	0.0															
	119	1020.5	260.5	1021.0000000000001	-500.0	1.0	100.0	1	2041.0	0.0															
	124	160.5	30.0	120.0	-60.0	1.0	100.0	1	321.0	0.0															
	125	0.0	87.5	200.0	-25.0	1.0	100.0	1	0.0	0.0															
	138	0.0	112.5	350.0	-125.0	1.0	100.0	1	0.0	0.0															
	141	148.5	12.5	75.0	-50.0	1.0	100.0	1	297.0	0.0															
	143	400.0	100.0	300.0	-100.0	1.0	100.0	1	800.0	0.0															
	146	45.5	10.0	35.0	-15.0	1.0	100.0	1	91.0	0.0															
	147	160.0	25.0	100.0	-50.0	1.0	100.0	1	320.0	0.0															
	149	138.5	12.5	50.0	-25.0	1.0	100.0	1	277.0	0.0															
	152	303.0	62.5	175.0	-50.0	1.0	100.0	1	606.0	0.0															
	153	121.0	20.0	90.0	-50.0	1.0	100.0	1	242.0	0.0															
	156	0.0	2.5	15.0	-10.0	1.0	100.0	1	0.0	0.0															
	170	165.0	25.0	90.0	-40.0	1.0	100.0	1	330.0	0.0															
	171	0.0	50.0	150.0	-50.0	1.0	100.0	1	0.0	0.0															
	176	139.0	22.5	90.0	-45.0	1.0	100.0	1	278.0	0.0															
	177	62.5	10.0	35.0	-15.0	1.0	100.0	1	125.0	0.0															
	185	125.0	15.0	80.0	-50.0	1.0	100.0	1	250.0	0.0															
	186	1232.5	150.0	400.0	-100.0	1.0	100.0	1	2465.0	0.0															
	187	811.9999999999999	150.0	400.0	-100.0	1.0	100.0	1	1623.9999999999998	0.0															
	190	257.5	0.0	258.0	-258.0	1.0	100.0	1	515.0	0.0															
	191	1070.0	0.0	1000.0	-1000.0	1.0	100.0	1	2140.0	0.0															
	198	215.0	0.0	215.0	-215.0	1.0	100.0	1	430.0	0.0															
	213	144.0	0.0	144.0	-144.0	1.0	100.0	1	288.0	0.0															
	220	229.99999999999997	0.0	60.0	-60.0	1.0	100.0	1	459.99999999999994	0.0															
	221	277.0	0.0	277.0	-277.0	1.0	100.0	1	554.0	0.0															
	222	261.5	0.0	262.0	-262.0	1.0	100.0	1	523.0	0.0															
	227	218.00000000000003	0.0	218.00000000000003	-218.00000000000003	1.0	100.0	1	436.00000000000006	0.0															
	230	229.0	0.0	229.0	-229.0	1.0	100.0	1	458.0	0.0															
	233	170.5	0.0	171.0	-171.0	1.0	100.0	1	341.0	0.0															
	236	440.5	0.0	300.0	-300.0	1.0	100.0	1	881.0	0.0															
	238	133.5	0.0	134.0	-134.0	1.0	100.0	1	267.0	0.0															
	239	310.5	0.0	311.0	-311.0	1.0	100.0	1	621.0	0.0															
	241	563.5	0.0	564.0	-564.0	1.0	100.0	1	1127.0	0.0															
	242	106.0	70.0	100.0	40.0	1.0	100.0	1	212.0	0.0															
	243	171.0	60.0	80.0	40.0	1.0	100.0	1	342.0	0.0															
	7001	284.0	0.0	210.0	-210.0	1.0	100.0	1	568.0	0.0															
	7002	335.0	0.0	280.0	-280.0	1.0	100.0	1	670.0	0.0															
	7003	700.5	0.0	420.0	-420.0	1.0	100.0	1	1401.0	0.0															
	7011	334.0	0.0	100.0	-100.0	1.0	100.0	1	668.0	0.0															
	7012	313.0	0.0	224.00000000000003	-224.00000000000003	1.0	100.0	1	626.0	0.0															
	7017	245.00000000000003	122.50000000000001	245.00000000000003	0.0	1.0	100.0	1	490.00000000000006	0.0															
	7023	110.00000000000001	55.00000000000001	110.00000000000001	0.0	1.0	100.0	1	220.00000000000003	0.0															
	7024	271.5	0.0	224.00000000000003	-224.00000000000003	1.0	100.0	1	543.0	0.0															
	7039	290.0	0.0	200.0	-200.0	1.0	100.0	1	580.0	0.0															
	7044	66.0	21.0	42.0	0.0	1.0	100.0	1	132.0	0.0															
	7049	359.0	5.0	10.0	0.0	1.0	100.0	1	718.0	0.0															
	7055	79.0	12.5	25.0	0.0	1.0	100.0	1	158.0	0.0															
	7057	167.0	0.0	90.0	-90.0	1.0	100.0	1	334.0	0.0															
	7061	878.5	0.0	150.0	-150.0	1.0	100.0	1	1757.0	0.0															
	7062	284.0	75.0	150.0	0.0	1.0	100.0	1	568.0	0.0															
	7071	101.49999999999999	43.5	87.0	0.0	1.0	100.0	1	202.99999999999997	0.0															
	7130	863.0000000000001	250.0	600.0	-100.0	1.0	100.0	1	1726.0000000000002	0.0															
	7139	1012.5	100.0	325.0	-125.0	1.0	100.0	1	2025.0	0.0															
	7166	312.0	50.0	300.0	-200.0	1.0	100.0	1	624.0	0.0															
	9002	0.0	0.0	2.0	-2.0	1.0	100.0	1	0.0	0.0															
	9051	0.0	0.0	17.35	-17.35	1.0	100.0	1	0.0	0.0															
	9053	0.0	0.015	12.83	-12.8	1.0	100.0	1	0.0	0.0															
	9054	42.0	0.0	38.0	-38.0	1.0	100.0	1	84.0	0.0															
	9055	18.5	0.0	6.0	-6.0	1.0	100.0	1	37.0	0.0															
];

%% branch data
%    f_bus    t_bus    r    x    b    rateA    rateB    rateC    ratio    angle    status    angmin    angmax
mpc.branch = [
	37	9001	5.999582752212027e-5	0.0004599680110035444	0.02249980497571475	9900.0	63229.99999999999	63229.99999999999	1.0082	0.0	1	-29.999999999999996	29.999999999999996								
	9001	9005	0.0007998551417854908	0.003479369879279465	0.004347830796963282	8215.0	8215.0	8215.0	0	0	1	-29.999999999999996	29.999999999999996								
	9001	9006	0.01978346478815419	0.34892103655362106	0.004348504161136757	68.0	68.0	68.0	0.9668	0.0	1	-29.999999999999996	29.999999999999996								
	9001	9012	0.15569088255871277	1.016111641682206	0.004349195123232925	46.0	46.0	46.0	0.9796	0.0	1	-29.999999999999996	29.999999999999996								
	9005	9051	0.015520436412699384	0.3241903074379724	0.0043486349382811955	79.0	79.0	79.0	1.0435	0.0	1	-29.999999999999996	29.999999999999996								
	9005	9052	0.02016900035733819	0.369439610559448	0.004352806152866976	79.0	79.0	79.0	0.9391	0.0	1	-29.999999999999996	29.999999999999996								
	9005	9053	0.03140632743341687	0.46062730483208797	0.1115906869616118	78.0	78.0	78.0	1.0435	0.0	1	-29.999999999999996	29.999999999999996								
	9005	9054	0.0033781880351539902	0.15138501666075566	0.27145912786986093	193.0	193.0	193.0	1.0435	0.0	1	-29.999999999999996	29.999999999999996								
	9005	9055	0.09357968431375206	0.7914530243777522	0.033447213763572264	37.0	37.0	37.0	1.0435	0.0	1	-29.999999999999996	29.999999999999996								
	9006	9007	0.05873064760021222	0.2605803148805215	0.08353667296736629	117.0	117.0	117.0	0	0	1	-29.999999999999996	29.999999999999996								
	9006	9003	0.11251368135448898	0.49852729371761195	0.004347727050852648	59.0	59.0	59.0	0	0	1	-29.999999999999996	29.999999999999996								
	9006	9003	0.12959439706749848	0.5740848826906362	0.004347502294114087	59.0	59.0	59.0	0	0	1	-29.999999999999996	29.999999999999996								
	9012	9002	0.0818859470106091	0.4649733344131395	0.06867983859705366	67.0	67.0	67.0	0	0	1	-29.999999999999996	29.999999999999996								
	9012	9002	0.07539709354721197	0.4281323543754374	0.004348188588876077	67.0	67.0	67.0	0	0	1	-29.999999999999996	29.999999999999996								
	9002	9021	0.054460556099114654	0.07125505959088464	0.004349681484435469	332.0	332.0	332.0	0	0	1	-29.999999999999996	29.999999999999996								
	9021	9023	0.451359610124932	0.7781643833970731	0.0043514077056786065	21.0	21.0	21.0	0	0	1	-29.999999999999996	29.999999999999996								
	9021	9022	0.15569103433019846	1.0161117055494613	0.004351505064542686	11.0	11.0	11.0	1.0	0.0	1	-29.999999999999996	29.999999999999996								
	9002	9024	0.15569090952927508	1.0161117655113119	0.023169760514107463	9.0	9.0	9.0	1.0	0.0	1	-29.999999999999996	29.999999999999996								
	9023	9025	0.15569079423303928	1.0161118213366302	0.01334989365186733	8.0	8.0	8.0	1.0	0.0	1	-29.999999999999996	29.999999999999996								
	9023	9026	0.15569123479154764	1.0161116206120633	0.004347853466813418	8.0	8.0	8.0	1.0	0.0	1	-29.999999999999996	29.999999999999996								
	9007	9071	0.15569099735718459	1.0161117197167877	0.004347520536106155	10.0	10.0	10.0	1.0	0.0	1	-29.999999999999996	29.999999999999996								
	9007	9072	0.15569101715038103	1.0161117102346038	0.0043483073951932245	15.0	15.0	15.0	1.0	0.0	1	-29.999999999999996	29.999999999999996								
	9007	9003	0.05759920097450752	0.25457856370435894	0.004347593347460604	115.99999999999999	115.99999999999999	115.99999999999999	0	0	1	-29.999999999999996	29.999999999999996								
	9003	9031	0.1556906643170854	1.016111884586743	0.004349752506311353	7.000000000000001	7.000000000000001	7.000000000000001	1.0	0.0	1	-29.999999999999996	29.999999999999996								
	9003	9032	0.1556908935434799	1.0161117732217764	0.004347001414222015	6.0	6.0	6.0	1.0	0.0	1	-29.999999999999996	29.999999999999996								
	9003	9033	0.15569095703150948	1.0161117426412618	0.004347078789265858	7.000000000000001	7.000000000000001	7.000000000000001	1.0	0.0	1	-29.999999999999996	29.999999999999996								
	9003	9044	0.07409129867923299	0.06378800605659253	0.004346847700869413	302.0	302.0	302.0	0	0	1	-29.999999999999996	29.999999999999996								
	9044	9004	0.03831262949693446	0.028934433657287786	0.004347630847582561	611.0	611.0	611.0	0	0	1	-29.999999999999996	29.999999999999996								
	9004	9041	0.15569132326370919	1.0161115544220174	0.004346760517959451	12.0	12.0	12.0	1.0	0.0	1	-29.999999999999996	29.999999999999996								
	9004	9042	0.15569077615291113	1.0161118295870175	0.004347612064762146	6.0	6.0	6.0	1.0	0.0	1	-29.999999999999996	29.999999999999996								
	9004	9043	0.15569097285415545	1.0161116720858823	0.004347451050681454	18.0	18.0	18.0	1.0	0.0	1	-29.999999999999996	29.999999999999996								
	9003	9034	0.15569107026183535	1.01611152653471	0.004346741015692704	21.0	21.0	21.0	1.0	0.0	1	-29.999999999999996	29.999999999999996								
	9003	9035	0.1556908905549087	1.0161117746651493	0.004347016820381184	9.0	9.0	9.0	1.0	0.0	1	-29.999999999999996	29.999999999999996								
	9003	9036	0.15569077949395213	1.0161118298576903	0.004347126692121312	18.0	18.0	18.0	1.0	0.0	1	-29.999999999999996	29.999999999999996								
	9003	9037	0.15569179062473648	1.0161113141510352	0.004347522302111887	12.0	12.0	12.0	1.0	0.0	1	-29.999999999999996	29.999999999999996								
	9003	9038	0.15569081755169648	1.0161118096660209	0.004347781839632493	10.0	10.0	10.0	1.0	0.0	1	-29.999999999999996	29.999999999999996								
	9012	9121	0.20632706927099398	0.8675941388332105	0.0043502097486753525	28.999999999999996	28.999999999999996	28.999999999999996	0	0	1	-29.999999999999996	29.999999999999996								
	9053	9533	0.08424075025687669	0.7514467583819363	0.09574668416508739	40.0	40.0	40.0	0.9583	0.0	1	-29.999999999999996	29.999999999999996								
	1	5	0.00100080027446171	0.006004801646427295	0.010193678653491542	4823.0	4823.0	4823.0	0	0	1	-29.999999999999996	29.999999999999996								
	2	6	0.0009932399822803703	0.008939159837683059	0.004349969739072417	3240.0	3240.0	3240.0	0	0	1	-29.999999999999996	29.999999999999996								
	2	8	0.005992429983160428	0.026965934898044722	0.026729717388313343	1061.0	1061.0	1061.0	0	0	1	-29.999999999999996	29.999999999999996								
	3	7	1.3255575143392468e-6	0.002999496326769421	0.004351781562715852	9778.0	9778.0	9778.0	0	0	1	-29.999999999999996	29.999999999999996								
	3	19	0.008169253755839889	0.07045981179054754	0.09947225555553894	423.00000000000006	423.00000000000006	423.00000000000006	0	0	1	-29.999999999999996	29.999999999999996								
	3	150	0.0010005930935288567	0.007004151654104606	0.004347800617593375	4149.0	4149.0	4149.0	0	0	1	-29.999999999999996	29.999999999999996								
	4	16	0.002026829439988554	0.019254879617450312	1.0870512409889583	1536.0	1536.0	1536.0	0	0	1	-29.999999999999996	29.999999999999996								
	5	9	0.005995532055230026	0.028978404901249765	0.004430014360677396	991.0	991.0	991.0	0	0	1	-29.999999999999996	29.999999999999996								
	7	12	0.0009966037017587659	0.00896943331196788	0.09678104877059542	3240.0	3240.0	3240.0	0	0	1	-29.999999999999996	29.999999999999996								