%% MATPOWER Case Format : Version 2
function mpc = pglib_opf_case179_goc
mpc.version = '2';

%%-----  Power Flow Data  -----%%
%% system MVA base
mpc.baseMVA = 100.0;
%% bus data
%    bus_i    type    Pd    Qd    Gs    Bs    area    Vm    Va    baseKV    zone    Vmax    Vmin
mpc.bus = [
	2	1	926.77	-54.77000000000001	0.0	0.0	1	1.003	0.0	1.0	1	1.108	0.898				
	3	1	0.0	0.0	0.0	0.0	1	1.003	0.0	1.0	1	1.108	0.898				
	4	2	46.71	0.0	0.0	0.0	1	1.003	0.0	1.0	1	1.108	0.898				
	5	1	1271.04	-122.37	0.0	0.0	1	1.003	0.0	1.0	1	1.108	0.898				
	6	2	48.57	0.0	0.0	0.0	1	1.003	0.0	1.0	1	1.108	0.898				
	7	1	0.0	0.0	0.0	-112.99999999999999	1	1.003	0.0	1.0	1	1.108	0.898				
	8	1	113.45	-54.21	0.0	-155.0	1	1.003	0.0	1.0	1	1.108	0.898				
	9	2	50.0	0.0	0.0	0.0	1	1.003	0.0	1.0	1	1.108	0.898				
	10	1	67.39	22.91	0.0	0.0	1	1.003	0.0	1.0	1	1.108	0.898				
	11	2	47.87	0.0	0.0	0.0	1	1.003	0.0	1.0	1	1.108	0.898				
	12	1	41.43	65.76	0.0	-190.0	2	1.003	0.0	1.0	1	1.108	0.898				
	13	2	48.55	0.0	0.0	0.0	2	1.003	0.0	1.0	1	1.108	0.898				
	14	1	0.0	0.0	0.0	-391.0	2	1.003	0.0	1.0	1	1.108	0.898				
	15	2	46.55	0.0	0.0	0.0	2	1.003	0.0	1.0	1	1.108	0.898				
	16	1	434.68	215.19999999999996	0.0	-146.0	2	1.003	0.0	1.0	1	1.108	0.898				
	17	1	459.25	4.79	0.0	390.0	1	1.003	0.0	1.0	1	1.108	0.898				
	18	2	51.790000000000006	0.0	0.0	0.0	1	1.003	0.0	1.0	1	1.108	0.898				
	19	1	327.45	-64.08	0.0	-426.99999999999994	2	1.003	0.0	1.0	1	1.108	0.898				
	20	1	0.0	0.0	0.0	0.0	2	1.003	0.0	1.0	1	1.108	0.898				
	21	1	0.0	0.0	0.0	0.0	2	1.003	0.0	1.0	1	1.108	0.898				
	22	1	0.0	0.0	0.0	0.0	2	1.003	0.0	1.0	1	1.108	0.898				
	23	1	0.0	0.0	0.0	0.0	2	1.003	0.0	1.0	1	1.108	0.898				
	24	1	0.0	0.0	0.0	0.0	2	1.003	0.0	1.0	1	1.108	0.898				
	25	1	0.0	0.0	0.0	0.0	2	1.003	0.0	1.0	1	1.108	0.898				
	26	1	0.0	0.0	0.0	0.0	2	1.003	0.0	1.0	1	1.108	0.898				
	27	1	0.0	0.0	0.0	0.0	2	1.003	0.0	1.0	1	1.108	0.898				
	28	1	0.0	0.0	0.0	0.0	1	1.003	0.0	1.0	1	1.108	0.898				
	29	1	0.0	0.0	0.0	0.0	1	1.003	0.0	1.0	1	1.108	0.898				
	30	2	49.3	0.0	0.0	0.0	1	1.003	0.0	1.0	1	1.108	0.898				
	31	1	2376.39	1052.35	0.0	0.0	1	1.003	0.0	1.0	1	1.108	0.898				
	32	1	0.0	0.0	0.0	0.0	1	1.003	0.0	1.0	1	1.108	0.898				
	33	1	0.0	0.0	0.0	0.0	1	1.003	0.0	1.0	1	1.108	0.898				
	34	1	1692.19	703.18	0.0	0.0	1	1.003	0.0	1.0	1	1.108	0.898				
	35	2	45.09	0.0	0.0	0.0	1	1.003	0.0	1.0	1	1.108	0.898				
	36	2	51.16	0.0	0.0	0.0	1	1.003	0.0	1.0	1	1.108	0.898				
	37	1	-843.68	1045.02	0.0	911.9999999999999	2	1.003	0.0	1.0	1	1.108	0.898				
	38	1	0.0	0.0	0.0	0.0	2	1.003	0.0	1.0	1	1.108	0.898				
	39	1	0.0	0.0	0.0	0.0	2	1.003	0.0	1.0	1	1.108	0.898				
	40	2	51.45000000000001	0.0	0.0	0.0	2	1.003	0.0	1.0	1	1.108	0.898				
	41	1	69.79	28.000000000000004	0.0	0.0	2	1.003	0.0	1.0	1	1.108	0.898				
	42	1	0.0	0.0	0.0	0.0	2	1.003	0.0	1.0	1	1.108	0.898				
	43	2	49.01	0.0	0.0	0.0	2	1.003	0.0	1.0	1	1.108	0.898				
	44	1	1098.25	902.5	0.0	430.0	1	1.003	0.0	1.0	1	1.108	0.898				
	45	2	52.83	0.0	0.0	0.0	1	1.003	0.0	1.0	1	1.108	0.898				
	46	1	-35.89	-17.32	0.0	0.0	2	1.003	0.0	1.0	1	1.108	0.898				
	47	2	53.25	0.0	0.0	0.0	2	1.003	0.0	1.0	1	1.108	0.898				
	48	1	55.04	24.01	0.0	0.0	2	1.003	0.0	1.0	1	1.108	0.898				
	49	1	0.0	0.0	0.0	-80.0	2	1.003	0.0	1.0	1	1.108	0.898				
	50	1	172.41	62.09	0.0	0.0	2	1.003	0.0	1.0	1	1.108	0.898				
	51	1	115.97999999999999	-58.77	0.0	0.0	2	1.003	0.0	1.0	1	1.108	0.898				
	52	1	0.0	0.0	0.0	0.0	2	1.003	0.0	1.0	1	1.108	0.898				
	53	1	0.0	0.0	0.0	0.0	2	1.003	0.0	1.0	1	1.108	0.898				
	54	1	74.1	29.03	0.0	0.0	2	1.003	0.0	1.0	1	1.108	0.898				
	55	1	427.39000000000004	126.16000000000001	0.0	0.0	2	1.003	0.0	1.0	1	1.108	0.898				
	56	1	0.0	0.0	0.0	0.0	2	1.003	0.0	1.0	1	1.108	0.898				
	57	1	62.17	24.03	0.0	0.0	2	1.003	0.0	1.0	1	1.108	0.898				
	58	1	59.47	25.47	0.0	0.0	2	1.003	0.0	1.0	1	1.108	0.898				
	59	1	480.82000000000005	-6.570000000000001	0.0	0.0	2	1.003	0.0	1.0	1	1.108	0.898				
	60	1	-1459.73	1687.42	0.0	2146.0	2	1.003	0.0	1.0	1	1.108	0.898				
	61	1	185.63	75.27	0.0	0.0	2	1.003	0.0	1.0	1	1.108	0.898				
	62	1	96.01	18.56	0.0	0.0	2	1.003	0.0	1.0	1	1.108	0.898				
	63	1	-69.23	30.320000000000004	0.0	-108.0	2	1.003	0.0	1.0	1	1.108	0.898				
	64	1	0.0	0.0	0.0	0.0	2	1.003	0.0	1.0	1	1.108	0.898				
	65	2	46.97	0.0	0.0	0.0	1	1.003	0.0	1.0	1	1.108	0.898				
	66	1	774.37	298.97	0.0	0.0	1	1.003	0.0	1.0	1	1.108	0.898				
	67	1	78.5	31.52	0.0	0.0	1	1.003	0.0	1.0	1	1.108	0.898				
	68	1	-35.37	174.17	0.0	576.85	1	1.003	0.0	1.0	1	1.108	0.898				
	69	1	-23.29	20.73	0.0	0.0	1	1.003	0.0	1.0	1	1.108	0.898				
	70	2	51.910000000000004	0.0	0.0	0.0	1	1.003	0.0	1.0	1	1.108	0.898				
	71	1	1486.08	1816.85	0.0	792.0	1	1.003	0.0	1.0	1	1.108	0.898				
	72	1	0.0	0.0	0.0	462.0	1	1.003	0.0	1.0	1	1.108	0.898				
	73	1	-781.91	-53.83	0.0	0.0	1	1.003	0.0	1.0	1	1.108	0.898				
	74	1	0.0	0.0	0.0	0.0	1	1.003	0.0	1.0	1	1.108	0.898				
	75	1	1223.08	413.69999999999993	0.0	0.0	1	1.003	0.0	1.0	1	1.108	0.898				
	76	1	1617.7700000000002	1164.73	0.0	1019.35	1	1.003	0.0	1.0	1	1.108	0.898				
	77	3	54.24	0.0	0.0	0.0	1	1.003	0.0	1.0	1	1.108	0.898				
	78	1	1780.83	538.1	0.0	550.0	1	1.003	0.0	1.0	1	1.108	0.898				
	79	2	53.90999999999999	0.0	0.0	0.0	1	1.003	0.0	1.0	1	1.108	0.898				
	80	1	2289.75	396.38	0.0	1200.0	1	1.003	0.0	1.0	1	1.108	0.898				
	81	1	0.0	0.0	0.0	-220.00000000000003	1	1.003	0.0	1.0	1	1.108	0.898				
	82	1	-30.36	-92.62	0.0	-674.0	1	1.003	0.0	1.0	1	1.108	0.898				
	83	1	-185.65	-127.12	0.0	-110.00000000000001	1	1.003	0.0	1.0	1	1.108	0.898				
	84	1	0.0	0.0	0.0	-220.00000000000003	1	1.003	0.0	1.0	1	1.108	0.898				
	85	1	307.42	-452.74	0.0	-869.9999999999999	1	1.003	0.0	1.0	1	1.108	0.898				
	86	1	0.0	0.0	0.0	0.0	1	1.003	0.0	1.0	1	1.108	0.898				
	87	1	0.0	0.0	0.0	0.0	1	1.003	0.0	1.0	1	1.108	0.898				
	88	1	0.0	0.0	0.0	0.0	1	1.003	0.0	1.0	1	1.108	0.898				
	89	1	0.0	0.0	0.0	0.0	1	1.003	0.0	1.0	1	1.108	0.898				
	90	1	0.0	0.0	0.0	0.0	1	1.003	0.0	1.0	1	1.108	0.898				
	91	1	0.0	0.0	0.0	0.0	1	1.003	0.0	1.0	1	1.108	0.898				
	92	1	0.0	0.0	0.0	0.0	1	1.003	0.0	1.0	1	1.108	0.898				
	93	1	0.0	0.0	0.0	0.0	1	1.003	0.0	1.0	1	1.108	0.898				
	94	1	0.0	0.0	0.0	0.0	1	1.003	0.0	1.0	1	1.108	0.898				
	95	1	0.0	0.0	0.0	0.0	1	1.003	0.0	1.0	1	1.108	0.898				
	96	1	0.0	0.0	0.0	0.0	1	1.003	0.0	1.0	1	1.108	0.898				
	97	1	0.0	0.0	0.0	0.0	1	1.003	0.0	1.0	1	1.108	0.898				
	98	1	0.0	0.0	0.0	0.0	1	1.003	0.0	1.0	1	1.108	0.898				
	99	1	0.0	0.0	0.0	0.0	1	1.003	0.0	1.0	1	1.108	0.898				
	100	1	-19.81	21.24	0.0	0.0	3	1.003	0.0	1.0	1	1.108	0.898				
	101	1	107.66	-82.5	0.0	0.0	3	1.003	0.0	1.0	1	1.108	0.898				
	102	1	23.75	26.25	0.0	0.0	2	1.003	0.0	1.0	1	1.108	0.898				
	103	2	54.620000000000005	0.0	0.0	0.0	2	1.003	0.0	1.0	1	1.108	0.898				
	104	1	167.6	-8.03	0.0	-91.0	2	1.003	0.0	1.0	1	1.108	0.898				
	105	1	14.279999999999998	-0.11	0.0	0.0	3	1.003	0.0	1.0	1	1.108	0.898				
	106	1	3.7800000000000002	0.0	0.0	0.0	3	1.003	0.0	1.0	1	1.108	0.898				
	107	1	131.26	13.819999999999999	0.0	0.0	2	1.003	0.0	1.0	1	1.108	0.898				
	108	1	28.610000000000003	-310.03	0.0	-327.0	2	1.003	0.0	1.0	1	1.108	0.898				
	109	1	427.13	35.78	0.0	-130.0	2	1.003	0.0	1.0	1	1.108	0.898				
	110	1	19.35	21.06	0.0	0.0	2	1.003	0.0	1.0	1	1.108	0.898				
	111	1	-99.3	63.54	0.0	0.0	3	1.003	0.0	1.0	1	1.108	0.898				
	112	2	54.11	0.0	0.0	0.0	3	1.003	0.0	1.0	1	1.108	0.898				
	113	1	75.99	0.0	0.0	-128.0	3	1.003	0.0	1.0	1	1.108	0.898				
	114	1	0.0	0.0	0.0	-91.0	3	1.003	0.0	1.0	1	1.108	0.898				
	115	1	-0.38	115.26	0.0	-91.0	3	1.003	0.0	1.0	1	1.108	0.898				
	116	2	51.07000000000001	0.0	0.0	0.0	3	1.003	0.0	1.0	1	1.108	0.898				
	117	1	438.1600000000001	54.83	0.0	-32.0	3	1.003	0.0	1.0	1	1.108	0.898				
	118	2	54.76	0.0	0.0	0.0	3	1.003	0.0	1.0	1	1.108	0.898				
	119	1	2650.16	3818.43	0.0	1500.0	3	1.003	0.0	1.0	1	1.108	0.898				
	120	1	0.0	0.0	0.0	0.0	3	1.003	0.0	1.0	1	1.108	0.898				
	121	1	0.0	0.0	0.0	0.0	3	1.003	0.0	1.0	1	1.108	0.898				
	122	1	0.0	0.0	0.0	0.0	3	1.003	0.0	1.0	1	1.108	0.898				
	123	1	0.0	0.0	0.0	0.0	3	1.003	0.0	1.0	1	1.108	0.898				
	124	1	0.0	0.0	0.0	0.0	3	1.003	0.0	1.0	1	1.108	0.898				
	125	1	0.0	0.0	0.0	0.0	3	1.003	0.0	1.0	1	1.108	0.898				
	126	1	0.0	0.0	0.0	0.0	3	1.003	0.0	1.0	1	1.108	0.898				
	127	1	0.0	0.0	0.0	0.0	3	1.003	0.0	1.0	1	1.108	0.898				
	128	1	0.0	0.0	0.0	0.0	3	1.003	0.0	1.0	1	1.108	0.898				
	129	1	0.0	0.0	0.0	0.0	3	1.003	0.0	1.0	1	1.108	0.898				
	130	1	0.0	0.0	0.0	0.0	3	1.003	0.0	1.0	1	1.108	0.898				
	131	1	0.0	0.0	0.0	0.0	3	1.003	0.0	1.0	1	1.108	0.898				
	132	1	0.0	0.0	0.0	0.0	2	1.003	0.0	1.0	1	1.108	0.898				
	133	1	0.0	0.0	0.0	0.0	2	1.003	0.0	1.0	1	1.108	0.898				
	134	1	0.0	0.0	0.0	0.0	2	1.003	0.0	1.0	1	1.108	0.898				
	135	1	0.0	0.0	0.0	0.0	2	1.003	0.0	1.0	1	1.108	0.898				
	136	1	414.7200000000001	17.91	0.0	0.0	2	1.003	0.0	1.0	1	1.108	0.898				
	137	1	95.26	17.51	0.0	0.0	2	1.003	0.0	1.0	1	1.108	0.898				
	138	2	46.32	0.0	0.0	0.0	2	1.003	0.0	1.0	1	1.108	0.898				
	139	1	471.1700000000001	-10.81	0.0	-319.0	2	1.003	0.0	1.0	1	1.108	0.898				
	140	2	48.52	0.0	0.0	0.0	2	1.003	0.0	1.0	1	1.108	0.898				
	141	1	1730.2800000000002	609.69	0.0	0.0	2	1.003	0.0	1.0	1	1.108	0.898				
	142	1	107.93000000000002	-26.179999999999996	0.0	0.0	2	1.003	0.0	1.0	1	1.108	0.898				
	143	1	174.36	60.86	0.0	0.0	2	1.003	0.0	1.0	1	1.108	0.898				
	144	2	45.88	0.0	0.0	0.0	2	1.003	0.0	1.0	1	1.108	0.898				
	145	1	1540.95	1238.88	0.0	400.0	2	1.003	0.0	1.0	1	1.108	0.898				
	146	1	0.0	0.0	0.0	0.0	2	1.003	0.0	1.0	1	1.108	0.898				
	147	1	0.0	0.0	0.0	-196.0	2	1.003	0.0	1.0	1	1.108	0.898				
	148	2	53.67999999999999	0.0	0.0	0.0	2	1.003	0.0	1.0	1	1.108	0.898				
	149	2	49.94	0.0	0.0	0.0	2	1.003	0.0	1.0	1	1.108	0.898				
	150	1	1578.86	75.65	0.0	0.0	2	1.003	0.0	1.0	1	1.108	0.898				
	151	1	559.23	78.48	0.0	0.0	2	1.003	0.0	1.0	1	1.108	0.898				
	152	1	191.17	45.01	0.0	0.0	2	1.003	0.0	1.0	1	1.108	0.898				
	153	1	0.0	0.0	0.0	0.0	2	1.003	0.0	1.0	1	1.108	0.898				
	154	1	511.38000000000005	-10.66	0.0	-190.0	2	1.003	0.0	1.0	1	1.108	0.898				
	155	1	210.21999999999997	74.94	0.0	-60.0	1	1.003	0.0	1.0	1	1.108	0.898				
	156	1	16.91	12.04	0.0	0.0	1	1.003	0.0	1.0	1	1.108	0.898				
	157	1	79.39	-8.29	0.0	0.0	1	1.003	0.0	1.0	1	1.108	0.898				
	158	1	53.010000000000005	41.07	0.0	-220.00000000000003	1	1.003	0.0	1.0	1	1.108	0.898				
	159	2	53.7	0.0	0.0	0.0	1	1.003	0.0	1.0	1	1.108	0.898				
	160	1	-29.29	11.72	0.0	0.0	1	1.003	0.0	1.0	1	1.108	0.898				
	161	1	137.66	104.12000000000002	0.0	0.0	1	1.003	0.0	1.0	1	1.108	0.898				
	162	2	47.79	0.0	0.0	0.0	1	1.003	0.0	1.0	1	1.108	0.898				
	163	1	0.0	0.0	0.0	0.0	1	1.003	0.0	1.0	1	1.108	0.898				
	164	1	15.049999999999999	12.06	0.0	-18.0	1	1.003	0.0	1.0	1	1.108	0.898				
	165	1	73.31	70.0	0.0	0.0	1	1.003	0.0	1.0	1	1.108	0.898				
	166	1	171.78	-39.78	0.0	-50.0	1	1.003	0.0	1.0	1	1.108	0.898				
	167	1	95.68	75.76	0.0	0.0	1	1.003	0.0	1.0	1	1.108	0.898				
	168	1	0.0	0.0	0.0	0.0	3	1.003	0.0	1.0	1	1.108	0.898				
	169	1	0.0	0.0	0.0	0.0	3	1.003	0.0	1.0	1	1.108	0.898				
	170	1	0.0	0.0	0.0	0.0	3	1.003	0.0	1.0	1	1.108	0.898				
	171	1	0.0	0.0	0.0	0.0	3	1.003	0.0	1.0	1	1.108	0.898				
	172	1	0.0	0.0	0.0	0.0	3	1.003	0.0	1.0	1	1.108	0.898				
	173	1	0.0	0.0	0.0	0.0	3	1.003	0.0	1.0	1	1.108	0.898				
	174	1	0.0	0.0	0.0	0.0	2	1.003	0.0	1.0	1	1.108	0.898				
	175	1	0.0	0.0	0.0	0.0	2	1.003	0.0	1.0	1	1.108	0.898				
	176	1	0.0	0.0	0.0	0.0	2	1.003	0.0	1.0	1	1.108	0.898				
	177	1	0.0	0.0	0.0	0.0	2	1.003	0.0	1.0	1	1.108	0.898				
	178	1	0.0	0.0	0.0	0.0	2	1.003	0.0	1.0	1	1.108	0.898				
	179	1	0.0	0.0	0.0	0.0	2	1.003	0.0	1.0	1	1.108	0.898				
	180	1	0.0	0.0	0.0	-220.00000000000003	1	1.003	0.0	1.0	1	1.108	0.898				
];

%% generator data
%    bus    Pg    Qg    Qmax    Qmin    Vg    mBase    status    Pmax    Pmin    Pc1    Pc2    Qc1min    Qc1max    Qc2min    Qc2max    ramp_agc    ramp_10    ramp_30    ramp_q    apf
mpc.gen = [
	4	994.0850000000002	-7.9399999999999995	320.28	-336.16	1.003	1600.0	1	1683.12	305.05	0.0	0.0	0.0	0.0	0.0	0.0	0.0	0.0	0.0	0.0	1683.1216				
	6	1084.63	-30.870000000000005	378.83	-440.56999999999994	1.003	2100.0	1	1938.1800000000003	231.07999999999998	0.0	0.0	0.0	0.0	0.0	0.0	0.0	0.0	0.0	0.0	1938.1774				
	9	2652.8	141.81	701.97	-418.35	1.003	4300.0	1	4498.26	807.3399999999999	0.0	0.0	0.0	0.0	0.0	0.0	0.0	0.0	0.0	0.0	4498.2554				
	11	2402.61	-17.94	899.03	-934.91	1.003	4100.0	1	3956.96	848.26	0.0	0.0	0.0	0.0	0.0	0.0	0.0	0.0	0.0	0.0	3956.9636				
	13	1929.025	207.49	697.21	-282.23	1.003	3400.0	1	3299.94	558.11	0.0	0.0	0.0	0.0	0.0	0.0	0.0	0.0	0.0	0.0	3299.9353				
	15	3479.4250000000006	361.045	1405.28	-683.19	1.003	5300.0	1	5393.53	1565.32	0.0	0.0	0.0	0.0	0.0	0.0	0.0	0.0	0.0	0.0	5393.5254				
	18	1305.43	23.19	319.0	-272.62	1.003	2000.0	1	2074.45	536.41	0.0	0.0	0.0	0.0	0.0	0.0	0.0	0.0	0.0	0.0	2074.4534				
	30	6392.915	11.185	4070.83	-4048.46	1.003	8900.0	1	9757.06	3028.77	0.0	0.0	0.0	0.0	0.0	0.0	0.0	0.0	0.0	0.0	9757.0576				
	35	5083.72	1136.34	5544.98	-3272.2999999999997	1.003	9000.0	1	8718.16	1449.28	0.0	0.0	0.0	0.0	0.0	0.0	0.0	0.0	0.0	0.0	8718.1563				
	36	2254.335	129.4	652.92	-394.12	1.003	3300.0	1	3493.62	1015.05	0.0	0.0	0.0	0.0	0.0	0.0	0.0	0.0	0.0	0.0	3493.625				
	40	191.725	48.255	247.18999999999997	-150.68	1.003	400.0	1	362.6	20.85	0.0	0.0	0.0	0.0	0.0	0.0	0.0	0.0	0.0	0.0	362.5961				
	43	400.44500000000005	71.525	311.04	-167.99	1.003	650.0	1	673.96	126.93	0.0	0.0	0.0	0.0	0.0	0.0	0.0	0.0	0.0	0.0	673.957				
	45	2010.625	89.785	765.95	-586.38	1.003	3600.0	1	3528.4	492.8500000000001	0.0	0.0	0.0	0.0	0.0	0.0	0.0	0.0	0.0	0.0	3528.4009				
	47	152.35	0.69	100.88	-99.5	1.003	220.0	1	233.68	71.02	0.0	0.0	0.0	0.0	0.0	0.0	0.0	0.0	0.0	0.0	233.6808				
	65	2932.815	353.385	1553.56	-846.79	1.003	5800.0	1	5459.92	405.71000000000004	0.0	0.0	0.0	0.0	0.0	0.0	0.0	0.0	0.0	0.0	5459.918				
	70	1239.795	-79.99	642.85	-802.8299999999999	1.003	2600.0	1	2377.38	102.21000000000001	0.0	0.0	0.0	0.0	0.0	0.0	0.0	0.0	0.0	0.0	2377.3799				
	77	7403.065	135.05	2448.15	-2178.05	1.003	10400.0	1	11165.05	3641.0800000000004	0.0	0.0	0.0	0.0	0.0	0.0	0.0	0.0	0.0	0.0	11165.0508				
	79	10354.215	2358.21	6030.37	-1313.95	1.003	20000.0	1	18208.22	2500.21	0.0	0.0	0.0	0.0	0.0	0.0	0.0	0.0	0.0	0.0	18208.2246				
	103	737.535	-14.145	327.94	-356.23	1.003	1500.0	1	1359.89	115.18000000000002	0.0	0.0	0.0	0.0	0.0	0.0	0.0	0.0	0.0	0.0	1359.8911				
	112	1328.115	-16.82	421.04999999999995	-454.69	1.003	2100.0	1	2247.11	409.11999999999995	0.0	0.0	0.0	0.0	0.0	0.0	0.0	0.0	0.0	0.0	2247.1069				
	116	805.425	-7.445	275.09	-289.98	1.003	1200.0	1	1298.69	312.16	0.0	0.0	0.0	0.0	0.0	0.0	0.0	0.0	0.0	0.0	1298.6926				
	118	4482.46	1027.675	2735.8	-680.45	1.003	6900.0	1	7386.7699999999995	1578.15	0.0	0.0	0.0	0.0	0.0	0.0	0.0	0.0	0.0	0.0	7386.77				
	138	1178.09	-18.965	307.09	-345.02	1.003	2000.0	1	2043.61	312.57	0.0	0.0	0.0	0.0	0.0	0.0	0.0	0.0	0.0	0.0	2043.6079				
	140	3469.755	594.35	2149.72	-961.0199999999999	1.003	6400.0	1	6145.22	794.29	0.0	0.0	0.0	0.0	0.0	0.0	0.0	0.0	0.0	0.0	6145.2231				
	144	1866.725	262.135	856.6	-332.33	1.003	3400.0	1	3135.12	598.33	0.0	0.0	0.0	0.0	0.0	0.0	0.0	0.0	0.0	0.0	3135.1221				
	148	2041.235	252.83	746.55	-240.89000000000001	1.003	3400.0	1	3402.54	679.93	0.0	0.0	0.0	0.0	0.0	0.0	0.0	0.0	0.0	0.0	3402.5374				
	149	2590.31	-21.69	582.17	-625.55	1.003	4400.0	1	4251.85	928.7699999999999	0.0	0.0	0.0	0.0	0.0	0.0	0.0	0.0	0.0	0.0	4251.854				
	159	2214.085	697.35	10604.58	-9209.88	1.003	3300.0	1	3483.05	945.12	0.0	0.0	0.0	0.0	0.0	0.0	0.0	0.0	0.0	0.0	3483.0479				
	162	501.62500000000006	-587.665	9359.49	-10534.82	1.003	900.0	1	839.66	163.59	0.0	0.0	0.0	0.0	0.0	0.0	0.0	0.0	0.0	0.0	839.6633				
];

%% branch data
%    f_bus    t_bus    r    x    b    rateA    rateB    rateC    ratio    angle    status    angmin    angmax
mpc.branch = [
	2	3	1.6713304376215934e-5	0.014608735461025889	0.036799227506936885	2196.0	2196.0	2196.0	0	0	1	-29.999999999999996	29.999999999999996								
	2	4	2.3417723911627315e-5	0.017292336987330473	0.010213907814734443	1853.0	1853.0	1853.0	0.9545	0.0	1	-29.999999999999996	29.999999999999996								
	3	8	0.0018323657855437575	0.02035052049802949	2.5877065453171495	1605.9999999999998	1605.9999999999998	1605.9999999999998	0	0	1	-29.999999999999996	29.999999999999996								
	5	6	1.2003852409896796e-5	0.01238060498405618	0.010200978432260479	2589.0	2589.0	2589.0	0	0	1	-29.999999999999996	29.999999999999996								
	5	11	1.762267632275511e-5	0.015000902227180733	0.0102056617359064	2137.0	2137.0	2137.0	0	0	1	-29.999999999999996	29.999999999999996								
	17	5	0.009947495995304442	0.11199840280202555	1.7263383673618853	291.0	291.0	291.0	0	0	1	-29.999999999999996	29.999999999999996								
	5	160	0.009174260085309964	0.15486501905638397	2.5261694429682406	234.0	234.0	234.0	0	0	1	-29.999999999999996	29.999999999999996								
	7	8	9.476912358156071e-6	0.01100056569123053	0.010229264541468226	2914.0	2914.0	2914.0	1.063	0.0	1	-29.999999999999996	29.999999999999996								
	7	8	9.4865176617665e-6	0.011006139074767107	0.010200344462251215	2914.0	2914.0	2914.0	1.063	0.0	1	-29.999999999999996	29.999999999999996								
	7	28	1.3029337169814911e-6	0.004078898393517362	0.010254936417123278	5501.81	7856.0	7856.0	0	0	1	-29.999999999999996	29.999999999999996								
	8	9	2.726055547881086e-6	0.005899959792513552	0.01020163991782169	5432.0	5432.0	5432.0	0	0	1	-29.999999999999996	29.999999999999996								
	8	10	0.00028546294721055587	0.014069244662481542	0.010214716201050498	2322.0	2322.0	2322.0	0	0	1	-29.999999999999996	29.999999999999996								
	8	10	0.0002911349184446671	0.013954397269229524	0.010216470852069903	2306.0	2306.0	2306.0	0	0	1	-29.999999999999996	29.999999999999996								
	8	17	0.0004989615128389058	0.005288992034838928	0.06681798576414359	2202.27	6021.0	6021.0	0	0	1	-29.999999999999996	29.999999999999996								
	163	8	0.004873677714169862	0.044269238633473124	0.694168877227124	731.0	731.0	731.0	0	0	1	-29.999999999999996	29.999999999999996								
	12	13	3.470854789119932e-6	0.006657327329301963	0.010206331421993904	4813.0	4813.0	4813.0	1.08	0.0	1	-29.999999999999996	29.999999999999996								
	12	20	3.146636865738839e-6	0.00633877020038382	0.08679546359285954	5055.0	5055.0	5055.0	0	0	1	-29.999999999999996	29.999999999999996								
	12	22	1.1057629160559073e-5	0.01188262988833812	0.010212398003661154	2698.0	2698.0	2698.0	0	0	1	-29.999999999999996	29.999999999999996								
	12	139	0.0027895619373817385	0.021021341707105134	0.8892298527438951	1506.0	1506.0	1506.0	0	0	1	-29.999999999999996	29.999999999999996								
	21	14	3.1487066876449345e-6	0.006340854642581272	0.03667093861079635	5055.0	5055.0	5055.0	0	0	1	-29.999999999999996	29.999999999999996								
	14	24	5.343221998106012e-6	0.008260061220918371	0.014142510635142479	3879.9999999999995	3879.9999999999995	3879.9999999999995	0	0	1	-29.999999999999996	29.999999999999996								
	14	26	2.5186829426252275e-5	0.01793362441236959	0.01022949573445477	1786.0	1786.0	1786.0	0	0	1	-29.999999999999996	29.999999999999996								
	29	14	2.928859656961193e-6	0.006115486038059019	0.014727989625532265	5237.0	5237.0	5237.0	0	0	1	-29.999999999999996	29.999999999999996								
	16	15	5.976519878866538e-5	0.0049306288279237975	0.07062835855168884	6473.999999999999	6473.999999999999	6473.999999999999	1.1061	0.0	1	-29.999999999999996	29.999999999999996								
	16	19	0.00040177462522777524	0.009642590962338092	1.0117726495268804	3336.0	3336.0	3336.0	0	0	1	-29.999999999999996	29.999999999999996								
	16	19	0.0003993786613926993	0.009585087831073105	1.0064156511019464	3336.0	3336.0	3336.0	0	0	1	-29.999999999999996	29.999999999999996								
	16	136	0.0024893720318398334	0.028517246152046035	2.085782050787246	1077.0	1077.0	1077.0	0	0	1	-29.999999999999996	29.999999999999996								
	16	136	0.0026219315422238943	0.030035794631022204	2.228508825078964	1077.0	1077.0	1077.0	0	0	1	-29.999999999999996	29.999999999999996								
	17	18	2.8197063942855526e-6	0.006000447557368975	0.01020334158087217	5342.0	5342.0	5342.0	1.0435	0.0	1	-29.999999999999996	29.999999999999996								
	23	19	1.0990238425158866e-5	0.011846365229646822	0.01020443458115698	2698.0	2698.0	2698.0	0	0	1	-29.999999999999996	29.999999999999996								
	25	19	5.344695169881227e-6	0.00826119982655208	0.05867934809254835	3879.9999999999995	3879.9999999999995	3879.9999999999995	0	0	1	-29.999999999999996	29.999999999999996								
	20	21	0.0007637440681439824	0.017893432192389543	1.5409542272428045	1775.0	1775.0	1775.0	0	0	1	-29.999999999999996	29.999999999999996								
	22	23	0.002446402648737549	0.059535886778490615	4.910620918846795	546.0	546.0	546.0	0	0	1	-29.999999999999996	29.999999999999996								
	24	25	0.0017813621444469126	0.04223519711666417	3.3619876209029305	755.0	755.0	755.0	0	0	1	-29.999999999999996	29.999999999999996								
	26	27	0.002063846367845173	0.04944257434573674	3.9523242018440987	646.0	646.0	646.0	0	0	1	-29.999999999999996	29.999999999999996								
	27	139	2.523239389842166e-5	0.017949838547057152	0.16055349553717424	1786.0	1786.0	1786.0	0	0	1	-29.999999999999996	29.999999999999996								
	28	29	0.0018192217367159135	0.04305491028223196	3.3532335425542055	765.0	765.0	765.0	0	0	1	-29.999999999999996	29.999999999999996								
	31	30	1.762158510499328e-7	0.0015000448030351666	0.010204187121389846	21366.0	21366.0	21366.0	1.05	0.0	1	-29.999999999999996	29.999999999999996								
	31	32	0.003493709230579697	0.06987417202660663	4.594204367255204	458.0	458.0	458.0	0	0	1	-29.999999999999996	29.999999999999996								
	31	80	0.0008241058193116718	0.02373027495704989	3.3022928419848427	1341.0	1341.0	1341.0	0	0	1	-29.999999999999996	29.999999999999996								
	32	33	7.831891730420724e-6	0.010000344292302897	0.021131713496430678	3204.9999999999995	3204.9999999999995	3204.9999999999995	1.1	0.0	1	-29.999999999999996	29.999999999999996								
	33	34	0.0019718092348656262	0.01971809228582412	0.9045678834110678	855.66	1595.0	1595.0	0	0	1	-29.999999999999996	29.999999999999996								
	34	35	3.132382464887506e-7	0.001999949983354673	0.010209021534677733	16025.0	16025.0	16025.0	0	0	1	-29.999999999999996	29.999999999999996								
	85	36	1.656963055698241e-6	0.004599791351080085	0.010209052719499168	6968.000000000001	6968.000000000001	6968.000000000001	0	0	1	-29.999999999999996	29.999999999999996								
	37	38	0.000759285394909013	0.01909500125394338	1.3352022865477047	1721.0	1721.0	1721.0	0	0	1	-29.999999999999996	29.999999999999996								
	37	56	0.0008116121882301283	0.016509379488097005	1.212210640648556	1920.0	1920.0	1920.0	0	0	1	-29.999999999999996	29.999999999999996								
	37	64	1.9798300508110512e-7	0.0015899947868841	0.13490598406624585	5755.18	20157.0	20157.0	0	0	1	-29.999999999999996	29.999999999999996								
	37	64	1.9801313524929254e-7	0.0015901157694579327	0.07560955717444008	5757.14	20157.0	20157.0	0	0	1	-29.999999999999996	29.999999999999996								
	38	48	0.00012801877407767924	0.006824385342099246	0.010463630147484082	4624.0	4624.0	4624.0	1.05	0.0	1	-29.999999999999996	29.999999999999996								
	39	40	0.0004949291726775291	0.023558625917350553	0.01078019551530579	1347.0	1347.0	1347.0	0	0	1	-29.999999999999996	29.999999999999996								
	39	46	0.00222972531310074	0.033758645832747416	0.09370679014365481	892.46	956.0	956.0	0	0	1	-29.999999999999996	29.999999999999996								
	39	48	0.0028857659850137435	0.03781348451746827	0.09031349259508221	841.0	841.0	841.0	0	0	1	-29.999999999999996	29.999999999999996								
	39	59	0.003076680835200932	0.04656840011415634	0.12536716620808364	684.0	684.0	684.0	0	0	1	-29.999999999999996	29.999999999999996								
	39	60	0.002274588030925867	0.03444088521609796	0.03612167746973142	832.1	935.0	935.0	0	0	1	-29.999999999999996	29.999999999999996								
	55	41	0.0004695179335524261	0.007222584374961574	0.010202148864632476	754.41	4424.0	4424.0	0	0	1	-29.999999999999996	29.999999999999996								
	41	58	0.0003495536523289422	0.0053531645014029535	0.01020846033610699	822.5799999999999	5967.0	5967.0	0	0	1	-29.999999999999996	29.999999999999996								
	42	43	0.0006201278429410743	0.027103859982472604	0.010206659857696134	1264.0	1264.0	1264.0	1.0491	0.0	1	-29.999999999999996	29.999999999999996								
	50	42	0.002152084749174363	0.033474699266998385	0.07975989955501467	761.15	935.0	935.0	0	0	1	-29.999999999999996	29.999999999999996								
	50	42	0.0023763486671320613	0.03663371015880911	0.10240626710196064	872.0000000000001	872.0000000000001	872.0000000000001	0	0	1	-29.999999999999996	29.999999999999996								
	57	42	0.0019809779519419373	0.03029614980846773	0.11112156185175406	768.89	1041.0	1041.0	0	0	1	-29.999999999999996	29.999999999999996								
	42	58	0.002839776246536189	0.04341522520734054	0.08746198645397238	745.0	745.0	745.0	0	0	1	-29.999999999999996	29.999999999999996								
	44	45	2.117614845849195e-6	0.005200022206814542	0.010206995071420857	6164.0	6164.0	6164.0	1.025	0.0	1	-29.999999999999996	29.999999999999996								
	44	160	0.0017859498494998004	0.02430876162177699	0.30759229172093167	1305.0	1305.0	1305.0	0	0	1	-29.999999999999996	29.999999999999996								
	44	160	0.0017831389896416855	0.02427050269698982	0.4540059545564311	1305.0	1305.0	1305.0	0	0	1	-29.999999999999996	29.999999999999996								
	48	46	0.00029025859851698104	0.004343870059147255	0.08630189653724278	841.15	7369.0	7369.0	0	0	1	-29.999999999999996	29.999999999999996								
	48	47	0.006177957911673448	0.1420433359128143	0.06785985381705201	280.0	280.0	280.0	1.0478	0.0	1	-29.999999999999996	29.999999999999996								
	49	48	0.0002764683131425519	0.014737886971101132	0.01020680475218632	2312.0	2312.0	2312.0	1.05	0.0	1	-29.999999999999996	29.999999999999996								
	48	55	0.0022917310136638456	0.01584196590020648	0.01020499668617948	855.66	2004.0	2004.0	0	0	1	-29.999999999999996	29.999999999999996								
	48	55	0.002293739275688891	0.01585584834027743	0.08563245487300598	905.33	2004.0	2004.0	0	0	1	-29.999999999999996	29.999999999999996								
	48	59	0.0014088776299763823	0.009662302607945445	0.03699060271937291	772.89	3279.9999999999995	3279.9999999999995	0	0	1	-29.999999999999996	29.999999999999996								
	48	59	0.001409816672382824	0.009668742707279233	0.010212713926501974	912.29	3279.9999999999995	3279.9999999999995	0	0	1	-29.999999999999996	29.999999999999996								
	48	59	0.0016082762105919972	0.00969960372715388	0.01021621655062588	763.48	3257.0	3257.0	0	0	1	-29.999999999999996	29.999999999999996								
	48	59	0.0016091212991309288	0.009704700503368972	0.10971624151714732	911.69	3257.0	3257.0	0	0	1	-29.999999999999996	29.999999999999996								
	48	60	0.00026949373836413	0.003922631079663187	0.010215341890427216	837.06	8136.0	8136.0	0	0	1	-29.999999999999996	29.999999999999996								
	48	60	0.00027063839517784923	0.003939292195494398	0.03658631517470195	783.45	8136.0	8136.0	0	0	1	-29.999999999999996	29.999999999999996								
	48	60	0.0002699115076871762	0.0039287119442494925	0.010272903561072121	804.85	8136.0	8136.0	0	0	1	-29.999999999999996	29.999999999999996								
	48	62	0.0013778969915180942	0.011142993054643432	0.010200193551309718	758.56	2851.0	2851.0	0	0	1	-29.999999999999996	29.999999999999996								
	48	62	0.0013668967235136486	0.011054034365739743	0.010773681963593273	759.88	2851.0	2851.0	0	0	1	-29.999999999999996	29.999999999999996								
	64	49	0.0008389013049649655	0.019042048599877688	1.6969497756004204	1700.0	1700.0	1700.0	0	0	1	-29.999999999999996	29.999999999999996								
	50	57	0.0003700760132018997	0.0036607519140360424	0.01990652437509913	880.09	8713.0	8713.0	0	0	1	-29.999999999999996	29.999999999999996								
	50	58	0.0005502645226325853	0.0058628183666592	0.04956181978792449	835.5	5446.0	5446.0	0	0	1	-29.999999999999996	29.999999999999996								
	52	51	0.0005933478899596179	0.014994604968626351	0.010203011306661776	2148.0	2148.0	2148.0	1.0017	0.0	1	-29.999999999999996	29.999999999999996								
	53	51	0.0005879608322209733	0.014858467633145045	0.010500256854651828	2148.0	2148.0	2148.0	1.0017	0.0	1	-29.999999999999996	29.999999999999996								
	54	51	0.00028795222393801213	0.01276588157385192	0.04018197344631743	2410.0	2410.0	2410.0	0	0	1	-29.999999999999996	29.999999999999996								
	54	51	0.0003089278829038197	0.013798778313570105	0.03946745049181288	2392.0	2392.0	2392.0	0	0	1	-29.999999999999996	29.999999999999996								
	52	63	0.010756427189338525	0.07946687332456905	0.4391383237751913	401.99999999999994	401.99999999999994	401.99999999999994	0	0	1	-29.999999999999996	29.999999999999996								
	53	63	0.010771496231562094	0.07957820114535773	0.41916383597597	401.99999999999994	401.99999999999994	401.99999999999994	0	0	1	-29.999999999999996	29.999999999999996								
	57	54	0.0007307954493237086	0.0102611689628273	0.05309279975287858	765.61	3119.0	3119.0	0	0	1	-29.999999999999996	29.999999999999996								
	57	54	0.0007301929966307094	0.010252709866839195	0.43979352170054337	898.03	3119.0	3119.0	0	0	1	-29.999999999999996	29.999999999999996								
	56	55	0.00013124451845529956	0.013992681886726952	0.01090943850060202	2313.0	2313.0	2313.0	1.0106	0.0	1	-29.999999999999996	29.999999999999996								
	56	55	0.0001242329663658965	0.01324514302675005	0.010205176698822573	2313.0	2313.0	2313.0	1.0106	0.0	1	-29.999999999999996	29.999999999999996								
	55	58	0.0011996179113130966	0.012540543526007126	0.01020304527022067	856.67	2565.0	2565.0	0	0	1	-29.999999999999996	29.999999999999996								
	55	58	0.0011950643230325285	0.012492941309225947	0.03829721832912032	852.17	2565.0	2565.0	0	0	1	-29.999999999999996	29.999999999999996								
	62	55	0.001270744359118514	0.009719208804967495	0.19664410524266554	868.54	3246.0	3246.0	0	0	1	-29.999999999999996	29.999999999999996								
	57	58	0.0010993744583413859	0.011883238447414906	0.06579090258809941	908.69	2684.0	2684.0	0	0	1	-29.999999999999996	29.999999999999996								
	60	61	1.0356199011481356e-7	0.0011499578965987515	0.010212078535229246	27869.0	27869.0	27869.0	1.0133	0.0	1	-29.999999999999996	29.999999999999996								
	137	61	0.0014162652487606483	0.026706715548584916	0.07128525126252667	848.66	1213.0	1213.0	0	0	1	-29.999999999999996	29.999999999999996								