%% MATPOWER Case Format : Version 2
function mpc = pglib_opf_case2316_sdet
mpc.version = '2';

%%-----  Power Flow Data  -----%%
%% system MVA base
mpc.baseMVA = 100.0;
%% bus data
%    bus_i    type    Pd    Qd    Gs    Bs    area    Vm    Va    baseKV    zone    Vmax    Vmin
mpc.bus = [
	1	1	0.0	0.0	0.0	0.0	1	1.0	0.0	345.0	1	1.1	0.9				
	2	1	0.0	0.0	0.0	-7.13	1	1.0	0.0	345.0	1	1.1	0.9				
	3	1	2.78	1.91	0.0	0.0	1	1.0	0.0	345.0	1	1.1	0.9				
	4	1	0.0	0.0	0.0	-9.6	1	1.0	0.0	345.0	1	1.1	0.9				
	5	1	0.0	0.0	0.0	0.0	1	1.0	0.0	345.0	1	1.1	0.9				
	6	1	0.0	0.0	0.0	41.99	1	1.0	0.0	345.0	1	1.1	0.9				
	7	1	0.0	0.0	0.0	0.0	1	1.0	0.0	345.0	1	1.1	0.9				
	8	1	0.0	0.0	0.0	0.0	1	1.0	0.0	345.0	1	1.1	0.9				
	9	2	221.28	-103.64	0.0	0.0	1	1.0	0.0	345.0	1	1.1	0.9				
	10	2	41.52	73.01	0.0	-0.22999999999999998	1	1.0	0.0	345.0	1	1.1	0.9				
	11	2	12.509999999999998	7.51	0.0	-0.24	1	1.0	0.0	138.0	1	1.1	0.9				
	12	2	20.99	10.69	0.0	-0.53	1	1.0	0.0	138.0	1	1.1	0.9				
	13	1	6.329999999999999	2.49	0.0	0.0	1	1.0	0.0	138.0	1	1.1	0.9				
	14	1	20.44	7.84	0.0	0.0	1	1.0	0.0	138.0	1	1.1	0.9				
	15	1	0.43	0.1	0.0	0.0	1	1.0	0.0	138.0	1	1.1	0.9				
	16	1	0.0	0.0	0.0	0.0	1	1.0	0.0	138.0	1	1.1	0.9				
	17	1	10.68	4.62	0.0	0.0	1	1.0	0.0	138.0	1	1.1	0.9				
	18	1	2.46	0.8	0.0	0.0	1	1.0	0.0	138.0	1	1.1	0.9				
	19	1	1.5	0.5	0.0	0.0	1	1.0	0.0	138.0	1	1.1	0.9				
	20	1	20.54	-35.59	0.0	0.0	1	1.0	0.0	138.0	1	1.1	0.9				
	21	1	14.57	3.1	0.0	0.0	1	1.0	0.0	138.0	1	1.1	0.9				
	22	1	0.0	0.0	0.0	0.0	1	1.0	0.0	138.0	1	1.1	0.9				
	23	1	42.51	-12.869999999999997	0.0	0.0	1	1.0	0.0	138.0	1	1.1	0.9				
	24	2	8.54	5.02	0.0	0.0	1	1.0	0.0	138.0	1	1.1	0.9				
	25	1	0.0	-0.4	0.0	0.0	1	1.0	0.0	138.0	1	1.1	0.9				
	26	2	35.41	12.61	0.0	-0.32	1	1.0	0.0	138.0	1	1.1	0.9				
	27	1	4.49	1.5	0.0	0.0	1	1.0	0.0	138.0	1	1.1	0.9				
	28	1	0.0	0.0	0.0	0.0	1	1.0	0.0	138.0	1	1.1	0.9				
	29	1	9.51	3.71	0.0	0.0	1	1.0	0.0	138.0	1	1.1	0.9				
	30	1	0.0	0.0	0.0	0.0	1	1.0	0.0	138.0	1	1.1	0.9				
	31	1	4.91	1.71	0.0	0.0	1	1.0	0.0	138.0	1	1.1	0.9				
	32	1	7.049999999999999	3.51	0.0	-1.31	1	1.0	0.0	138.0	1	1.1	0.9				
	33	1	7.049999999999999	4.62	0.0	0.0	1	1.0	0.0	138.0	1	1.1	0.9				
	34	1	0.0	0.0	0.0	0.0	1	1.0	0.0	138.0	1	1.1	0.9				
	35	1	1.6	0.5	0.0	0.0	1	1.0	0.0	138.0	1	1.1	0.9				
	36	1	0.0	0.0	0.0	0.0	1	1.0	0.0	138.0	1	1.1	0.9				
	37	1	0.0	0.0	0.0	0.0	1	1.0	0.0	138.0	1	1.1	0.9				
	38	1	0.0	0.0	0.0	0.0	1	1.0	0.0	138.0	1	1.1	0.9				
	39	1	4.71	0.48	0.0	-0.49	1	1.0	0.0	138.0	1	1.1	0.9				
	40	1	0.0	0.0	0.0	0.0	1	1.0	0.0	138.0	1	1.1	0.9				
	41	1	1.71	0.6	0.0	0.0	1	1.0	0.0	138.0	1	1.1	0.9				
	42	1	6.09	0.9000000000000001	0.0	0.0	1	1.0	0.0	138.0	1	1.1	0.9				
	43	1	0.0	0.0	0.0	3.71	1	1.0	0.0	138.0	1	1.1	0.9				
	44	1	15.85	8.31	0.0	0.0	1	1.0	0.0	138.0	1	1.1	0.9				
	45	1	4.95	2.28	0.0	0.0	1	1.0	0.0	138.0	1	1.1	0.9				
	46	2	37.19	15.6	0.0	-0.35	1	1.0	0.0	138.0	1	1.1	0.9				
	47	1	11.71	4.19	0.0	0.0	1	1.0	0.0	138.0	1	1.1	0.9				
	48	1	0.0	0.15	0.0	0.0	1	1.0	0.0	138.0	1	1.1	0.9				
	49	1	17.92	4.21	0.0	-4.15	1	1.0	0.0	138.0	1	1.1	0.9				
	50	1	0.0	0.0	0.0	0.0	1	1.0	0.0	138.0	1	1.1	0.9				
	51	1	0.0	0.0	0.0	0.0	1	1.0	0.0	138.0	1	1.1	0.9				
	52	1	18.59	5.92	0.0	0.0	1	1.0	0.0	138.0	1	1.1	0.9				
	53	1	7.919999999999999	3.2199999999999998	0.0	-61.980000000000004	1	1.0	0.0	138.0	1	1.1	0.9				
	54	1	3.85	2.11	0.0	0.0	1	1.0	0.0	138.0	1	1.1	0.9				
	55	1	0.32	0.0	0.0	0.0	1	1.0	0.0	138.0	1	1.1	0.9				
	56	1	7.07	2.62	0.0	0.0	1	1.0	0.0	138.0	1	1.1	0.9				
	57	1	4.17	1.49	0.0	0.0	1	1.0	0.0	138.0	1	1.1	0.9				
	58	1	49.85	-5.88	0.0	0.0	1	1.0	0.0	138.0	1	1.1	0.9				
	59	1	6.63	2.23	0.0	0.0	1	1.0	0.0	138.0	1	1.1	0.9				
	60	1	1.5	0.4	0.0	0.0	1	1.0	0.0	138.0	1	1.1	0.9				
	61	1	8.98	24.27	0.0	0.0	1	1.0	0.0	138.0	1	1.1	0.9				
	62	1	0.0	0.0	0.0	0.0	1	1.0	0.0	138.0	1	1.1	0.9				
	63	1	4.7	1.55	0.0	0.0	1	1.0	0.0	138.0	1	1.1	0.9				
	64	1	2.35	0.8	0.0	0.0	1	1.0	0.0	138.0	1	1.1	0.9				
	65	1	2.14	0.7	0.0	0.0	1	1.0	0.0	138.0	1	1.1	0.9				
	66	1	7.39	2.73	0.0	0.0	1	1.0	0.0	138.0	1	1.1	0.9				
	67	1	9.65	3.73	0.0	3.71	1	1.0	0.0	138.0	1	1.1	0.9				
	68	2	17.2	33.81	0.0	0.0	1	1.0	0.0	138.0	1	1.1	0.9				
	69	1	0.0	0.0	0.0	-0.29	1	1.0	0.0	138.0	1	1.1	0.9				
	70	1	25.0	7.000000000000001	0.0	0.0	1	1.0	0.0	138.0	1	1.1	0.9				
	71	1	0.0	0.0	0.0	0.0	2	1.0	0.0	345.0	2	1.1	0.9				
	72	1	0.0	0.0	0.0	0.0	2	1.0	0.0	345.0	2	1.1	0.9				
	73	1	0.0	0.0	0.0	0.0	2	1.0	0.0	345.0	2	1.1	0.9				
	74	1	0.0	0.0	0.0	0.0	2	1.0	0.0	345.0	2	1.1	0.9				
	75	2	12.0	30.0	0.0	0.0	2	1.0	0.0	345.0	2	1.1	0.9				
	76	2	19.91	36.57	0.0	0.0	2	1.0	0.0	345.0	2	1.1	0.9				
	77	2	12.0	30.0	0.0	0.0	2	1.0	0.0	500.0	2	1.1	0.9				
	78	2	0.0	0.0	0.0	14.580000000000002	2	1.0	0.0	345.0	2	1.1	0.9				
	79	1	0.0	0.0	0.0	0.0	2	1.0	0.0	345.0	2	1.1	0.9				
	80	1	0.0	0.0	0.0	0.0	2	1.0	0.0	345.0	2	1.1	0.9				
	81	1	0.0	0.0	0.0	0.0	2	1.0	0.0	345.0	2	1.1	0.9				
	82	1	0.0	0.0	0.0	0.0	2	1.0	0.0	345.0	2	1.1	0.9				
	83	1	11.45	2.64	0.0	0.0	2	1.0	0.0	138.0	2	1.1	0.9				
	84	1	25.91	6.419999999999999	0.0	0.0	2	1.0	0.0	138.0	2	1.1	0.9				
	85	1	0.0	0.0	0.0	0.0	2	1.0	0.0	138.0	2	1.1	0.9				
	86	1	6.04	2.42	0.0	6.32	2	1.0	0.0	138.0	2	1.1	0.9				
	87	1	3.02	1.27	0.0	0.0	2	1.0	0.0	138.0	2	1.1	0.9				
	88	1	6.63	0.64	0.0	0.0	2	1.0	0.0	138.0	2	1.1	0.9				
	89	1	12.49	4.85	0.0	0.0	2	1.0	0.0	138.0	2	1.1	0.9				
	90	1	3.63	0.53	0.0	-0.02	2	1.0	0.0	138.0	2	1.1	0.9				
	91	1	3.54	1.16	0.0	0.0	2	1.0	0.0	138.0	2	1.1	0.9				
	92	2	19.22	32.9	0.0	0.0	2	1.0	0.0	138.0	2	1.1	0.9				
	93	1	0.0	0.0	0.0	0.0	2	1.0	0.0	138.0	2	1.1	0.9				
	94	1	2.29	0.84	0.0	0.0	2	1.0	0.0	138.0	2	1.1	0.9				
	95	2	4.69	1.91	0.0	3.0	2	1.0	0.0	138.0	2	1.1	0.9				
	96	1	0.1	-0.79	0.0	0.0	2	1.0	0.0	138.0	2	1.1	0.9				
	97	1	5.57	1.97	0.0	0.0	2	1.0	0.0	138.0	2	1.1	0.9				
	98	2	20.23	25.52	0.0	0.0	2	1.0	0.0	138.0	2	1.1	0.9				
	99	2	12.57	9.27	0.0	0.0	2	1.0	0.0	138.0	2	1.1	0.9				
	100	1	12.91	4.74	0.0	0.0	2	1.0	0.0	138.0	2	1.1	0.9				
	101	1	9.37	3.7900000000000005	0.0	0.0	2	1.0	0.0	138.0	2	1.1	0.9				
	102	1	14.16	5.69	0.0	0.0	2	1.0	0.0	138.0	2	1.1	0.9				
	103	1	11.4	3.74	0.0	0.0	2	1.0	0.0	138.0	2	1.1	0.9				
	104	1	10.41	3.8	0.0	0.0	2	1.0	0.0	138.0	2	1.1	0.9				
	105	1	0.0	0.0	0.0	0.42	2	1.0	0.0	138.0	2	1.1	0.9				
	106	1	0.0	0.0	0.0	0.0	2	1.0	0.0	138.0	2	1.1	0.9				
	107	1	5.49	0.64	0.0	0.0	2	1.0	0.0	138.0	2	1.1	0.9				
	108	1	6.87	2.0	0.0	0.0	2	1.0	0.0	138.0	2	1.1	0.9				
	109	1	5.62	2.32	0.0	0.0	2	1.0	0.0	138.0	2	1.1	0.9				
	110	1	4.16	1.69	0.0	0.0	2	1.0	0.0	138.0	2	1.1	0.9				
	111	1	1.46	0.53	0.0	0.0	2	1.0	0.0	138.0	2	1.1	0.9				
	112	2	1.79	0.76	0.0	0.42	2	1.0	0.0	138.0	2	1.1	0.9				
	113	1	1.67	0.74	0.0	0.0	2	1.0	0.0	138.0	2	1.1	0.9				
	114	1	3.11	0.86	0.0	0.0	2	1.0	0.0	138.0	2	1.1	0.9				
	115	1	4.77	0.54	0.0	0.0	2	1.0	0.0	138.0	2	1.1	0.9				
	116	1	7.08	1.79	0.0	0.0	2	1.0	0.0	138.0	2	1.1	0.9				
	117	1	11.45	4.64	0.0	6.660000000000001	2	1.0	0.0	138.0	2	1.1	0.9				
	118	1	8.43	3.37	0.0	0.0	2	1.0	0.0	138.0	2	1.1	0.9				
	119	1	6.77	-1.7000000000000002	0.0	0.0	2	1.0	0.0	138.0	2	1.1	0.9				
	120	2	21.87	12.659999999999998	0.0	0.0	2	1.0	0.0	138.0	2	1.1	0.9				
	121	1	24.98	23.19	0.0	0.0	2	1.0	0.0	138.0	2	1.1	0.9				
	122	1	14.57	4.22	0.0	0.0	2	1.0	0.0	138.0	2	1.1	0.9				
	123	1	16.13	4.74	0.0	0.0	2	1.0	0.0	138.0	2	1.1	0.9				
	124	1	5.34	1.77	0.0	0.0	2	1.0	0.0	138.0	2	1.1	0.9				
	125	2	5.67	5.84	0.0	0.0	2	1.0	0.0	138.0	2	1.1	0.9				
	126	1	7.7	3.16	0.0	0.0	2	1.0	0.0	138.0	2	1.1	0.9				
	127	2	0.0	0.0	0.0	0.0	2	1.0	0.0	138.0	2	1.1	0.9				
	128	2	7.400000000000001	2.54	0.0	0.0	2	1.0	0.0	138.0	2	1.1	0.9				
	129	1	1.2	0.4699999999999999	0.0	0.0	2	1.0	0.0	138.0	2	1.1	0.9				
	130	1	5.72	2.32	0.0	0.0	2	1.0	0.0	138.0	2	1.1	0.9				
	131	1	5.83	2.32	0.0	0.0	2	1.0	0.0	138.0	2	1.1	0.9				
	132	1	6.25	1.7399999999999998	0.0	0.0	2	1.0	0.0	138.0	2	1.1	0.9				
	133	1	6.25	1.7399999999999998	0.0	0.0	2	1.0	0.0	138.0	2	1.1	0.9				
	134	1	0.63	0.21	0.0	0.0	2	1.0	0.0	138.0	2	1.1	0.9				
	135	2	13.13	5.28	0.0	0.0	2	1.0	0.0	138.0	2	1.1	0.9				
	136	1	9.37	3.61	0.0	0.0	2	1.0	0.0	138.0	2	1.1	0.9				
	137	1	4.68	1.9	0.0	0.0	2	1.0	0.0	138.0	2	1.1	0.9				
	138	2	6.460000000000001	2.54	0.0	4.2	2	1.0	0.0	138.0	2	1.1	0.9				
	139	1	21.76	6.1	0.0	0.0	2	1.0	0.0	138.0	2	1.1	0.9				
	140	1	2.08	0.84	0.0	0.0	2	1.0	0.0	138.0	2	1.1	0.9				
	141	1	2.71	1.05	0.0	0.0	2	1.0	0.0	138.0	2	1.1	0.9				
	142	1	4.06	0.53	0.0	0.0	2	1.0	0.0	138.0	2	1.1	0.9				
	143	1	0.0	0.0	0.0	0.0	2	1.0	0.0	138.0	2	1.1	0.9				
	144	1	0.0	0.0	0.0	0.0	2	1.0	0.0	138.0	2	1.1	0.9				
	145	1	0.0	0.0	0.0	0.0	2	1.0	0.0	138.0	2	1.1	0.9				
	146	1	8.43	3.06	0.0	0.0	2	1.0	0.0	138.0	2	1.1	0.9				
	147	1	3.75	0.84	0.0	0.0	2	1.0	0.0	138.0	2	1.1	0.9				
	148	1	28.21	10.33	0.0	0.0	2	1.0	0.0	138.0	2	1.1	0.9				
	149	1	1.56	0.63	0.0	0.0	2	1.0	0.0	138.0	2	1.1	0.9				
	150	2	634.0	0.0	0.0	0.0	2	1.0	0.0	345.0	2	1.1	0.9				
	151	1	81.5	85.9	0.0	0.0	3	1.0	0.0	345.0	3	1.1	0.9				
	152	1	0.0	0.0	0.0	0.0	3	1.0	0.0	500.0	3	1.1	0.9				
	153	1	0.0	0.0	0.0	-11.35	3	1.0	0.0	500.0	3	1.1	0.9				
	154	1	0.0	0.0	0.0	0.0	3	1.0	0.0	500.0	3	1.1	0.9				
	155	1	0.0	0.0	0.0	0.0	3	1.0	0.0	500.0	3	1.1	0.9				
	156	1	0.0	0.0	0.0	75.29	3	1.0	0.0	500.0	3	1.1	0.9				
	157	1	0.0	0.0	0.0	-27.07	3	1.0	0.0	345.0	3	1.1	0.9				
	158	1	0.0	0.0	0.0	-322.11	3	1.0	0.0	500.0	3	1.1	0.9				
	159	1	0.0	0.0	0.0	0.0	3	1.0	0.0	500.0	3	1.1	0.9				
	160	1	0.0	0.0	0.0	0.0	3	1.0	0.0	500.0	3	1.1	0.9				
	161	1	0.0	0.0	0.0	-124.24	3	1.0	0.0	500.0	3	1.1	0.9				
	162	1	34.71	60.15999999999999	0.0	0.0	3	1.0	0.0	500.0	3	1.1	0.9				
	163	1	0.0	0.0	0.0	70.0	3	1.0	0.0	500.0	3	1.1	0.9				
	164	1	0.0	0.0	0.0	0.0	3	1.0	0.0	500.0	3	1.1	0.9				
	165	2	11.0	40.0	0.0	0.0	3	1.0	0.0	500.0	3	1.1	0.9				
	166	2	5.0	10.0	0.0	0.0	3	1.0	0.0	500.0	3	1.1	0.9				
	167	1	6.93	3.11	0.0	0.0	3	1.0	0.0	138.0	3	1.1	0.9				
	168	2	14.649999999999999	1.0	0.0	0.0	3	1.0	0.0	138.0	3	1.1	0.9				
	169	1	8.14	1.32	0.0	0.0	3	1.0	0.0	138.0	3	1.1	0.9				
	170	1	14.17	4.22	0.0	0.0	3	1.0	0.0	138.0	3	1.1	0.9				
	171	2	4.22	1.0	0.0	0.0	3	1.0	0.0	138.0	3	1.1	0.9				
	172	1	131.91	57.06	0.0	0.0	3	1.0	0.0	138.0	3	1.1	0.9				
	173	1	0.0	0.0	0.0	48.6	3	1.0	0.0	32.0	3	1.1	0.9				
	174	1	0.0	0.0	0.0	0.0	3	1.0	0.0	138.0	3	1.1	0.9				
	175	1	5.22	2.11	0.0	0.0	3	1.0	0.0	138.0	3	1.1	0.9				
	176	1	2.61	1.0	0.0	0.0	3	1.0	0.0	138.0	3	1.1	0.9				
	177	2	0.01	0.01	0.0	0.0	3	1.0	0.0	138.0	3	1.1	0.9				
	178	2	0.01	0.01	0.0	0.0	3	1.0	0.0	138.0	3	1.1	0.9				
	179	1	15.67	5.22	0.0	0.0	3	1.0	0.0	138.0	3	1.1	0.9				
	180	1	16.78	4.72	0.0	0.0	3	1.0	0.0	138.0	3	1.1	0.9				
	181	1	4.22	0.5	0.0	0.0	3	1.0	0.0	138.0	3	1.1	0.9				
	182	1	10.85	1.0	0.0	0.0	3	1.0	0.0	138.0	3	1.1	0.9				
	183	2	14.67	3.11	0.0	0.0	3	1.0	0.0	138.0	3	1.1	0.9				
	184	1	7.539999999999999	1.0	0.0	0.0	3	1.0	0.0	138.0	3	1.1	0.9				
	185	2	2.11	0.5	0.0	0.0	3	1.0	0.0	138.0	3	1.1	0.9				
	186	1	5.73	1.0	0.0	0.0	3	1.0	0.0	138.0	3	1.1	0.9				
	187	1	0.0	0.0	0.0	60.0	3	1.0	0.0	16.0	3	1.1	0.9				
	188	2	9.45	2.61	0.0	0.0	3	1.0	0.0	138.0	3	1.1	0.9				
	189	1	4.22	1.0	0.0	0.0	3	1.0	0.0	138.0	3	1.1	0.9				
	190	1	23.11	8.34	0.0	0.0	3	1.0	0.0	138.0	3	1.1	0.9				
	191	1	15.67	2.61	0.0	0.0	3	1.0	0.0	138.0	3	1.1	0.9				
	192	1	19.89	6.83	0.0	0.0	3	1.0	0.0	138.0	3	1.1	0.9				
	193	1	8.34	2.71	0.0	0.0	3	1.0	0.0	138.0	3	1.1	0.9				
	194	2	16.78	6.329999999999999	0.0	0.0	3	1.0	0.0	138.0	3	1.1	0.9				
	195	2	14.67	3.11	0.0	0.0	3	1.0	0.0	138.0	3	1.1	0.9				
	196	1	5.8	-0.22	0.0	0.0	3	1.0	0.0	138.0	3	1.1	0.9				
	197	1	7.33	2.11	0.0	0.0	3	1.0	0.0	138.0	3	1.1	0.9				
	198	1	5.22	0.5	0.0	0.0	3	1.0	0.0	138.0	3	1.1	0.9				
	199	1	0.0	0.0	0.0	-16.07	3	1.0	0.0	138.0	3	1.1	0.9				
	200	1	0.0	0.0	0.0	-2.01	3	1.0	0.0	138.0	3	1.1	0.9				
	201	2	9.45	1.0	0.0	0.0	3	1.0	0.0	138.0	3	1.1	0.9				
	202	1	21.52	0.64	0.0	0.0	3	1.0	0.0	138.0	3	1.1	0.9				
	203	1	10.45	1.0	0.0	0.0	3	1.0	0.0	138.0	3	1.1	0.9				
	204	1	8.34	3.11	0.0	0.0	3	1.0	0.0	138.0	3	1.1	0.9				
	205	1	0.0	0.0	0.0	0.0	3	1.0	0.0	138.0	3	1.1	0.9				
	206	1	14.67	3.11	0.0	0.0	3	1.0	0.0	138.0	3	1.1	0.9				
	207	2	30.44	4.22	0.0	0.0	3	1.0	0.0	138.0	3	1.1	0.9				
	208	1	18.89	4.72	0.0	0.0	3	1.0	0.0	138.0	3	1.1	0.9				
	209	2	11.55	1.0	0.0	0.0	3	1.0	0.0	138.0	3	1.1	0.9				
	210	1	17.78	4.22	0.0	0.0	3	1.0	0.0	138.0	3	1.1	0.9				
	211	1	0.0	0.0	0.0	0.0	3	1.0	0.0	138.0	3	1.1	0.9				
	212	1	0.27	-1.51	0.0	0.0	3	1.0	0.0	138.0	3	1.1	0.9				
	213	1	3.04	-0.86	0.0	0.0	3	1.0	0.0	138.0	3	1.1	0.9				
	214	1	0.0	0.0	0.0	-15.190000000000001	3	1.0	0.0	138.0	3	1.1	0.9				
	215	1	0.0	0.0	0.0	-14.11	3	1.0	0.0	138.0	3	1.1	0.9				
	216	1	0.0	0.0	0.0	0.0	3	1.0	0.0	500.0	3	1.1	0.9				
	217	2	0.0	0.0	0.0	0.0	4	1.0	0.0	345.0	4	1.1	0.9				
	218	1	13.38	129.99	0.0	0.0	4	1.0	0.0	345.0	4	1.1	0.9				
	219	1	0.0	0.0	0.0	0.0	4	1.0	0.0	345.0	4	1.1	0.9				
	220	1	0.0	0.0	0.0	0.0	4	1.0	0.0	345.0	4	1.1	0.9				
	221	1	0.0	0.0	0.0	13.919999999999998	4	1.0	0.0	345.0	4	1.1	0.9				
	222	1	97.95	60.58	0.0	0.0	4	1.0	0.0	345.0	4	1.1	0.9				
	223	2	10.0	44.0	0.0	0.0	4	1.0	0.0	345.0	4	1.1	0.9				
	224	2	10.0	44.0	0.0	0.0	4	1.0	0.0	345.0	4	1.1	0.9				
	225	2	18.2	37.21	0.0	-110.35999999999999	4	1.0	0.0	345.0	4	1.1	0.9				
	226	1	0.0	0.0	0.0	-18.63	4	1.0	0.0	345.0	4	1.1	0.9				
	227	1	0.0	-0.79	0.0	0.0	4	1.0	0.0	345.0	4	1.1	0.9				
	228	1	0.0	-0.79	0.0	0.0	4	1.0	0.0	345.0	4	1.1	0.9				
	229	1	3.63	1.3	0.0	0.0	4	1.0	0.0	138.0	4	1.1	0.9				
	230	1	0.0	0.0	0.0	0.0	4	1.0	0.0	138.0	4	1.1	0.9				
	231	1	29.4	-9.75	0.0	0.0	4	1.0	0.0	138.0	4	1.1	0.9				
	232	1	0.0	0.0	0.0	4.35	4	1.0	0.0	138.0	4	1.1	0.9				
	233	1	10.68	4.62	0.0	0.0	4	1.0	0.0	138.0	4	1.1	0.9				
	234	1	5.45	4.11	0.0	0.0	4	1.0	0.0	138.0	4	1.1	0.9				
	235	1	64.56	15.85	0.0	-0.25	4	1.0	0.0	138.0	4	1.1	0.9				
	236	1	1.6	-0.54	0.0	-0.25	4	1.0	0.0	138.0	4	1.1	0.9				
	237	1	0.0	0.0	0.0	0.0	4	1.0	0.0	138.0	4	1.1	0.9				
	238	1	56.99999999999999	19.3	0.0	0.0	4	1.0	0.0	138.0	4	1.1	0.9				
	239	1	0.0	0.0	0.0	0.0	4	1.0	0.0	138.0	4	1.1	0.9				
	240	1	0.0	0.0	0.0	0.0	4	1.0	0.0	138.0	4	1.1	0.9				
	241	1	38.7	7.980000000000001	0.0	0.0	4	1.0	0.0	138.0	4	1.1	0.9				
	242	1	1.18	0.2	0.0	0.0	4	1.0	0.0	138.0	4	1.1	0.9				
	243	1	18.85	-9.82	0.0	0.0	4	1.0	0.0	138.0	4	1.1	0.9				
	244	1	4.49	1.5	0.0	0.0	4	1.0	0.0	138.0	4	1.1	0.9				
	245	1	0.0	0.0	0.0	-10.36	4	1.0	0.0	138.0	4	1.1	0.9				
	246	2	10.0	44.0	0.0	-0.29	4	1.0	0.0	138.0	4	1.1	0.9				
	247	1	9.51	3.71	0.0	0.0	4	1.0	0.0	138.0	4	1.1	0.9				
	248	2	0.0	0.0	0.0	0.0	4	1.0	0.0	138.0	4	1.1	0.9				
	249	1	5.99	2.04	0.0	0.0	4	1.0	0.0	138.0	4	1.1	0.9				
	250	1	0.0	0.0	0.0	0.0	4	1.0	0.0	138.0	4	1.1	0.9				
	251	1	7.48	4.01	0.0	0.0	4	1.0	0.0	138.0	4	1.1	0.9				
	252	2	19.5	48.0	0.0	-0.29	4	1.0	0.0	138.0	4	1.1	0.9				
	253	1	11.05	4.3	0.0	6.24	4	1.0	0.0	138.0	4	1.1	0.9				
	254	1	61.19	-9.58	0.0	0.0	4	1.0	0.0	138.0	4	1.1	0.9				
	255	1	6.329999999999999	2.49	0.0	7.31	4	1.0	0.0	138.0	4	1.1	0.9				
	256	1	2.46	0.9199999999999999	0.0	0.0	4	1.0	0.0	138.0	4	1.1	0.9				
	257	1	1.28	0.3	0.0	0.0	4	1.0	0.0	138.0	4	1.1	0.9				
	258	1	0.0	0.0	0.0	0.0	4	1.0	0.0	138.0	4	1.1	0.9				
	259	1	6.419999999999999	2.28	0.0	0.0	4	1.0	0.0	138.0	4	1.1	0.9				
	260	1	12.32	4.77	0.0	0.0	4	1.0	0.0	138.0	4	1.1	0.9				
	261	1	3.52	1.1	0.0	0.0	4	1.0	0.0	138.0	4	1.1	0.9				
	262	1	0.0	0.0	0.0	0.0	4	1.0	0.0	138.0	4	1.1	0.9				
	263	1	2.24	0.7	0.0	0.0	4	1.0	0.0	138.0	4	1.1	0.9				
	264	1	0.0	0.0	0.0	0.0	4	1.0	0.0	138.0	4	1.1	0.9				
	265	1	5.02	1.76	0.0	0.0	4	1.0	0.0	138.0	4	1.1	0.9				
	266	1	5.55	1.91	0.0	0.0	4	1.0	0.0	138.0	4	1.1	0.9				
	267	1	0.0	0.0	0.0	0.0	4	1.0	0.0	138.0	4	1.1	0.9				
	268	1	18.68	10.15	0.0	0.0	4	1.0	0.0	138.0	4	1.1	0.9				
	269	1	4.75	-0.52	0.0	0.0	4	1.0	0.0	138.0	4	1.1	0.9				
	270	1	4.06	1.3	0.0	0.0	4	1.0	0.0	138.0	4	1.1	0.9				
	271	1	2.99	0.9000000000000001	0.0	5.93	4	1.0	0.0	138.0	4	1.1	0.9				
	272	1	0.0	0.0	0.0	0.0	4	1.0	0.0	138.0	4	1.1	0.9				
	273	1	0.0	0.0	0.0	0.0	4	1.0	0.0	138.0	4	1.1	0.9				
	274	2	405.99999999999994	0.0	0.0	0.0	4	1.0	0.0	345.0	4	1.1	0.9				
	275	1	0.0	0.0	0.0	84.79	5	1.0	0.0	345.0	5	1.1	0.9				
	276	1	0.0	0.0	0.0	0.0	5	1.0	0.0	500.0	5	1.1	0.9				
	277	1	0.0	0.0	0.0	110.69	5	1.0	0.0	500.0	5	1.1	0.9				
	278	1	0.0	0.0	0.0	0.0	5	1.0	0.0	500.0	5	1.1	0.9				
	279	1	0.0	0.0	0.0	0.0	5	1.0	0.0	500.0	5	1.1	0.9				
	280	1	154.6	71.72	0.0	0.0	5	1.0	0.0	500.0	5	1.1	0.9				
	281	1	0.0	0.0	0.0	2.15	5	1.0	0.0	345.0	5	1.1	0.9				
	282	1	0.0	0.0	0.0	-373.27	5	1.0	0.0	500.0	5	1.1	0.9				
	283	1	0.0	0.0	0.0	0.0	5	1.0	0.0	500.0	5	1.1	0.9				
	284	1	0.0	0.0	0.0	0.0	5	1.0	0.0	500.0	5	1.1	0.9				
	285	1	0.0	0.0	0.0	-161.35	5	1.0	0.0	500.0	5	1.1	0.9				
	286	1	86.89	60.15999999999999	0.0	0.0	5	1.0	0.0	500.0	5	1.1	0.9				
	287	1	0.0	0.0	0.0	70.0	5	1.0	0.0	500.0	5	1.1	0.9				
	288	1	0.0	0.0	0.0	0.0	5	1.0	0.0	500.0	5	1.1	0.9				
	289	2	11.0	40.0	0.0	0.0	5	1.0	0.0	500.0	5	1.1	0.9				
	290	2	5.0	10.0	0.0	0.0	5	1.0	0.0	500.0	5	1.1	0.9				
	291	1	6.93	3.11	0.0	0.0	5	1.0	0.0	138.0	5	1.1	0.9				
	292	2	14.649999999999999	1.0	0.0	0.0	5	1.0	0.0	138.0	5	1.1	0.9				
	293	1	8.14	1.32	0.0	0.0	5	1.0	0.0	138.0	5	1.1	0.9				
	294	1	14.17	4.22	0.0	0.0	5	1.0	0.0	138.0	5	1.1	0.9				
	295	2	4.22	1.0	0.0	0.0	5	1.0	0.0	138.0	5	1.1	0.9				
	296	1	131.91	57.06	0.0	0.0	5	1.0	0.0	138.0	5	1.1	0.9				
	297	1	0.0	0.0	0.0	48.6	5	1.0	0.0	32.0	5	1.1	0.9				
	298	1	0.0	0.0	0.0	0.0	5	1.0	0.0	138.0	5	1.1	0.9				
	299	1	5.22	2.11	0.0	0.0	5	1.0	0.0	138.0	5	1.1	0.9				
	300	1	2.61	1.0	0.0	0.0	5	1.0	0.0	138.0	5	1.1	0.9				
	301	2	0.01	0.01	0.0	0.0	5	1.0	0.0	138.0	5	1.1	0.9				
	302	2	0.01	0.01	0.0	0.0	5	1.0	0.0	138.0	5	1.1	0.9				
	303	1	15.67	5.22	0.0	0.0	5	1.0	0.0	138.0	5	1.1	0.9				
	304	1	16.78	4.72	0.0	0.0	5	1.0	0.0	138.0	5	1.1	0.9				
	305	1	4.22	0.5	0.0	0.0	5	1.0	0.0	138.0	5	1.1	0.9				
	306	1	10.85	1.0	0.0	0.0	5	1.0	0.0	138.0	5	1.1	0.9				
	307	2	14.67	3.11	0.0	0.0	5	1.0	0.0	138.0	5	1.1	0.9				
	308	1	7.539999999999999	1.0	0.0	0.0	5	1.0	0.0	138.0	5	1.1	0.9				
	309	1	2.11	0.5	0.0	22.81	5	1.0	0.0	138.0	5	1.1	0.9				
	310	1	5.73	1.0	0.0	0.0	5	1.0	0.0	138.0	5	1.1	0.9				
	311	1	0.0	0.0	0.0	60.0	5	1.0	0.0	16.0	5	1.1	0.9				
	312	2	9.45	2.61	0.0	0.0	5	1.0	0.0	138.0	5	1.1	0.9				
	313	1	4.22	1.0	0.0	0.0	5	1.0	0.0	138.0	5	1.1	0.9				
	314	1	23.11	8.34	0.0	0.0	5	1.0	0.0	138.0	5	1.1	0.9				
	315	1	15.67	2.61	0.0	0.0	5	1.0	0.0	138.0	5	1.1	0.9				
	316	1	19.89	6.83	0.0	0.0	5	1.0	0.0	138.0	5	1.1	0.9				
	317	1	8.34	2.71	0.0	0.0	5	1.0	0.0	138.0	5	1.1	0.9				
	318	2	16.78	6.329999999999999	0.0	0.0	5	1.0	0.0	138.0	5	1.1	0.9				
	319	2	14.67	3.11	0.0	0.0	5	1.0	0.0	138.0	5	1.1	0.9				
	320	1	5.8	-0.22	0.0	0.0	5	1.0	0.0	138.0	5	1.1	0.9				
	321	1	7.33	2.11	0.0	0.0	5	1.0	0.0	138.0	5	1.1	0.9				
	322	1	5.22	0.5	0.0	0.0	5	1.0	0.0	138.0	5	1.1	0.9				
	323	1	0.0	0.0	0.0	-16.07	5	1.0	0.0	138.0	5	1.1	0.9				
	324	1	0.0	0.0	0.0	-2.01	5	1.0	0.0	138.0	5	1.1	0.9				
	325	2	9.45	1.0	0.0	0.0	5	1.0	0.0	138.0	5	1.1	0.9				
	326	1	21.52	0.64	0.0	0.0	5	1.0	0.0	138.0	5	1.1	0.9				
	327	1	10.45	1.0	0.0	0.0	5	1.0	0.0	138.0	5	1.1	0.9				
	328	1	8.34	3.11	0.0	0.0	5	1.0	0.0	138.0	5	1.1	0.9				
	329	1	0.0	0.0	0.0	0.0	5	1.0	0.0	138.0	5	1.1	0.9				
	330	1	14.67	3.11	0.0	0.0	5	1.0	0.0	138.0	5	1.1	0.9				
	331	2	30.44	4.22	0.0	0.0	5	1.0	0.0	138.0	5	1.1	0.9				
	332	1	18.89	4.72	0.0	0.0	5	1.0	0.0	138.0	5	1.1	0.9				
	333	2	11.55	1.0	0.0	0.0	5	1.0	0.0	138.0	5	1.1	0.9				
	334	1	17.78	4.22	0.0	0.0	5	1.0	0.0	138.0	5	1.1	0.9				
	335	1	0.0	0.0	0.0	0.0	5	1.0	0.0	138.0	5	1.1	0.9				
	336	1	0.27	-1.51	0.0	0.0	5	1.0	0.0	138.0	5	1.1	0.9				
	337	1	3.04	-0.86	0.0	0.0	5	1.0	0.0	138.0	5	1.1	0.9				
	338	1	0.0	0.0	0.0	-15.190000000000001	5	1.0	0.0	138.0	5	1.1	0.9				
	339	1	0.0	0.0	0.0	-14.11	5	1.0	0.0	138.0	5	1.1	0.9				
	340	1	0.0	0.0	0.0	0.0	5	1.0	0.0	500.0	5	1.1	0.9				
	341	1	817.6600000000001	-176.93	0.0	-0.33	6	1.0	0.0	500.0	6	1.1	0.9				
	342	1	2064.42	68.94	0.0	-0.3	6	1.0	0.0	500.0	6	1.1	0.9				
	343	2	0.0	0.0	0.0	0.0	6	1.0	0.0	500.0	6	1.1	0.9				
	344	2	0.0	0.0	0.0	0.0	6	1.0	0.0	500.0	6	1.1	0.9				
	345	2	0.0	0.0	0.0	0.0	6	1.0	0.0	500.0	6	1.1	0.9				
	346	1	0.0	0.0	0.0	0.0	6	1.0	0.0	500.0	6	1.1	0.9				
	347	2	0.0	0.0	0.0	0.0	6	1.0	0.0	500.0	6	1.1	0.9				
	348	1	0.0	0.0	0.0	-12.06	6	1.0	0.0	500.0	6	1.1	0.9				
	349	2	0.0	0.0	0.0	0.0	6	1.0	0.0	500.0	6	1.1	0.9				
	350	2	0.0	0.0	0.0	0.0	6	1.0	0.0	500.0	6	1.1	0.9				
	351	2	0.0	0.0	0.0	0.0	6	1.0	0.0	500.0	6	1.1	0.9				
	352	2	0.0	0.0	0.0	0.0	6	1.0	0.0	500.0	6	1.1	0.9				
	353	2	0.0	0.0	0.0	0.0	6	1.0	0.0	500.0	6	1.1	0.9				
	354	2	0.0	0.0	0.0	0.0	6	1.0	0.0	500.0	6	1.1	0.9				
	355	2	0.0	0.0	0.0	0.0	6	1.0	0.0	500.0	6	1.1	0.9				
	356	2	0.0	0.0	0.0	0.0	6	1.0	0.0	500.0	6	1.1	0.9				
	357	2	0.0	0.0	0.0	0.0	6	1.0	0.0	500.0	6	1.1	0.9				
	358	2	0.0	0.0	0.0	0.0	6	1.0	0.0	500.0	6	1.1	0.9				
	359	1	94.0	27.449999999999996	0.0	0.0	6	1.0	0.0	345.0	6	1.1	0.9				
	360	2	0.0	0.0	0.0	0.0	6	1.0	0.0	345.0	6	1.1	0.9				
	361	2	0.0	0.0	0.0	0.0	6	1.0	0.0	345.0	6	1.1	0.9				
	362	2	0.0	0.0	0.0	0.0	6	1.0	0.0	345.0	6	1.1	0.9				
	363	1	0.0	0.0	0.0	0.0	6	1.0	0.0	500.0	6	1.1	0.9				
	364	2	0.0	0.0	0.0	0.0	6	1.0	0.0	500.0	6	1.1	0.9				
	365	2	0.0	0.0	0.0	0.0	6	1.0	0.0	500.0	6	1.1	0.9				
	366	2	0.0	0.0	0.0	0.0	6	1.0	0.0	500.0	6	1.1	0.9				
	367	2	0.0	0.0	0.0	0.0	6	1.0	0.0	500.0	6	1.1	0.9				
	368	1	2311.34	-41.41	0.0	0.0	6	1.0	0.0	500.0	6	1.1	0.9				
	369	1	730.49	-118.29	0.0	0.0	6	1.0	0.0	500.0	6	1.1	0.9				
	370	1	0.0	0.0	0.0	0.0	6	1.0	0.0	500.0	6	1.1	0.9				
	371	1	0.0	0.0	0.0	0.0	6	1.0	0.0	500.0	6	1.1	0.9				
	372	1	401.5899999999999	118.51	0.0	0.0	6	1.0	0.0	500.0	6	1.1	0.9				
	373	1	0.0	0.0	0.0	0.0	6	1.0	0.0	500.0	6	1.1	0.9				
	374	1	0.0	0.0	0.0	-345.6	6	1.0	0.0	500.0	6	1.1	0.9				
	375	1	0.0	0.0	0.0	0.0	6	1.0	0.0	500.0	6	1.1	0.9				
	376	1	0.0	0.0	0.0	0.0	6	1.0	0.0	500.0	6	1.1	0.9				
	377	1	0.0	0.0	0.0	0.0	6	1.0	0.0	500.0	6	1.1	0.9				
	378	1	0.0	0.0	0.0	0.0	6	1.0	0.0	500.0	6	1.1	0.9				
	379	2	0.0	0.0	0.0	-0.36	6	1.0	0.0	345.0	6	1.1	0.9				
	380	1	0.0	0.0	0.0	0.0	6	1.0	0.0	345.0	6	1.1	0.9				
	381	1	0.0	0.0	0.0	-0.88	6	1.0	0.0	345.0	6	1.1	0.9				
	382	1	0.0	0.0	0.0	-1.14	6	1.0	0.0	345.0	6	1.1	0.9				
	383	1	210.56	76.05	0.0	3.12	6	1.0	0.0	138.0	6	1.1	0.9				
	384	1	258.5	75.28	0.0	3.73	6	1.0	0.0	138.0	6	1.1	0.9				
	385	2	464.37	123.64	0.0	-1.94	6	1.0	0.0	138.0	6	1.1	0.9				
	386	1	98.7	24.72	0.0	-0.24	6	1.0	0.0	138.0	6	1.1	0.9				
	387	1	0.0	0.0	0.0	0.0	6	1.0	0.0	33.0	6	1.1	0.9				
	388	1	30.079999999999995	4.32	0.0	0.0	6	1.0	0.0	66.0	6	1.1	0.9				
	389	1	148.99	30.2	0.0	-0.62	6	1.0	0.0	138.0	6	1.1	0.9				
	390	1	148.99	30.2	0.0	-0.32	6	1.0	0.0	138.0	6	1.1	0.9				
	391	1	169.88	46.79	0.0	0.0	7	1.0	0.0	500.0	7	1.1	0.9				
	392	2	0.0	0.0	0.0	0.0	7	1.0	0.0	500.0	7	1.1	0.9				
	393	2	0.0	0.0	0.0	0.0	7	1.0	0.0	500.0	7	1.1	0.9				
	394	2	0.0	0.0	0.0	0.0	7	1.0	0.0	500.0	7	1.1	0.9				
	395	2	0.0	0.0	0.0	0.0	7	1.0	0.0	500.0	7	1.1	0.9				
	396	1	0.0	0.0	0.0	0.0	7	1.0	0.0	500.0	7	1.1	0.9				
	397	2	0.0	0.0	0.0	0.0	7	1.0	0.0	500.0	7	1.1	0.9				
	398	1	0.0	0.0	0.0	0.0	7	1.0	0.0	500.0	7	1.1	0.9				
	399	2	0.0	0.0	0.0	0.0	7	1.0	0.0	500.0	7	1.1	0.9				
	400	2	0.0	0.0	0.0	0.0	7	1.0	0.0	500.0	7	1.1	0.9				
	401	1	0.0	0.0	0.0	0.0	7	1.0	0.0	500.0	7	1.1	0.9				
	402	2	0.0	0.0	0.0	0.0	7	1.0	0.0	500.0	7	1.1	0.9				
	403	2	0.0	0.0	0.0	0.0	7	1.0	0.0	500.0	7	1.1	0.9				
	404	2	0.0	0.0	0.0	0.0	7	1.0	0.0	500.0	7	1.1	0.9				
	405	2	0.0	0.0	0.0	0.0	7	1.0	0.0	500.0	7	1.1	0.9				
	406	2	0.0	0.0	0.0	0.0	7	1.0	0.0	500.0	7	1.1	0.9				
	407	2	0.0	0.0	0.0	0.0	7	1.0	0.0	500.0	7	1.1	0.9				
	408	2	0.0	0.0	0.0	0.0	7	1.0	0.0	500.0	7	1.1	0.9				
	409	2	0.0	0.0	0.0	0.0	7	1.0	0.0	500.0	7	1.1	0.9				
	410	2	0.0	0.0	0.0	0.0	7	1.0	0.0	500.0	7	1.1	0.9				
	411	2	0.0	0.0	0.0	0.0	7	1.0	0.0	500.0	7	1.1	0.9				
	412	1	2214.14	-276.84	0.0	0.0	7	1.0	0.0	500.0	7	1.1	0.9				
	413	1	0.0	0.0	0.0	0.0	7	1.0	0.0	500.0	7	1.1	0.9				
	414	2	0.0	0.0	0.0	0.0	7	1.0	0.0	500.0	7	1.1	0.9				
	415	2	0.0	0.0	0.0	0.0	7	1.0	0.0	500.0	7	1.1	0.9				
	416	2	0.0	0.0	0.0	0.0	7	1.0	0.0	500.0	7	1.1	0.9				
	417	2	0.0	0.0	0.0	0.0	7	1.0	0.0	500.0	7	1.1	0.9				
	418	2	0.0	0.0	0.0	0.0	7	1.0	0.0	500.0	7	1.1	0.9				
	419	2	0.0	0.0	0.0	0.0	7	1.0	0.0	500.0	7	1.1	0.9				
	420	2	0.0	0.0	0.0	0.0	7	1.0	0.0	500.0	7	1.1	0.9				
	421	2	0.0	0.0	0.0	0.0	7	1.0	0.0	500.0	7	1.1	0.9				
	422	1	0.0	0.0	0.0	0.0	7	1.0	0.0	138.0	7	1.1	0.9				
	423	2	0.0	0.0	0.0	0.0	7	1.0	0.0	138.0	7	1.1	0.9				
	424	2	0.0	0.0	0.0	0.0	7	1.0	0.0	138.0	7	1.1	0.9				
	425	2	0.0	0.0	0.0	0.0	7	1.0	0.0	138.0	7	1.1	0.9				
	426	2	0.0	0.0	0.0	0.0	7	1.0	0.0	138.0	7	1.1	0.9				
	427	2	0.0	0.0	0.0	0.0	7	1.0	0.0	138.0	7	1.1	0.9				
	428	2	0.0	0.0	0.0	0.0	7	1.0	0.0	138.0	7	1.1	0.9				
	429	1	0.0	0.0	0.0	0.0	7	1.0	0.0	500.0	7	1.1	0.9				
	430	2	0.0	0.0	0.0	0.0	7	1.0	0.0	500.0	7	1.1	0.9				
	431	2	0.0	0.0	0.0	0.0	7	1.0	0.0	500.0	7	1.1	0.9				
	432	2	0.0	0.0	0.0	0.0	7	1.0	0.0	500.0	7	1.1	0.9				
	433	2	0.0	0.0	0.0	0.0	7	1.0	0.0	500.0	7	1.1	0.9				
	434	1	0.0	0.0	0.0	0.0	7	1.0	0.0	500.0	7	1.1	0.9				
	435	1	0.0	0.0	0.0	0.0	7	1.0	0.0	500.0	7	1.1	0.9				
	436	1	0.0	0.0	0.0	0.0	7	1.0	0.0	500.0	7	1.1	0.9				
	437	1	387.83	-231.77000000000004	0.0	0.0	7	1.0	0.0	500.0	7	1.1	0.9				
	438	1	0.0	0.0	0.0	0.0	7	1.0	0.0	500.0	7	1.1	0.9				
	439	1	0.0	0.0	0.0	0.0	7	1.0	0.0	500.0	7	1.1	0.9				
	440	1	1290.53	-6.83	0.0	0.0	7	1.0	0.0	500.0	7	1.1	0.9				
	441	1	902.82	37.02	0.0	0.0	7	1.0	0.0	500.0	7	1.1	0.9				
	442	1	0.0	0.0	0.0	0.0	7	1.0	0.0	500.0	7	1.1	0.9				
	443	1	0.0	0.0	0.0	0.0	7	1.0	0.0	500.0	7	1.1	0.9				
	444	2	0.0	0.0	0.0	-0.88	7	1.0	0.0	345.0	7	1.1	0.9				
	445	2	0.0	0.0	0.0	-1.14	7	1.0	0.0	345.0	7	1.1	0.9				
	446	1	137.24	54.16	0.0	-1.68	7	1.0	0.0	138.0	7	1.1	0.9				
	447	1	210.56	76.05	0.0	3.12	7	1.0	0.0	138.0	7	1.1	0.9				
	448	1	258.5	75.28	0.0	3.73	7	1.0	0.0	138.0	7	1.1	0.9				
	449	1	464.37	123.64	0.0	-1.94	7	1.0	0.0	138.0	7	1.1	0.9				
	450	1	0.0	0.0	0.0	0.0	7	1.0	0.0	33.0	7	1.1	0.9				
	451	1	0.0	0.0	0.0	0.0	8	1.0	0.0	500.0	8	1.1	0.9				
	452	2	0.0	0.0	0.0	0.0	8	1.0	0.0	500.0	8	1.1	0.9				
	453	2	0.0	0.0	0.0	0.0	8	1.0	0.0	500.0	8	1.1	0.9				
	454	1	0.0	0.0	0.0	0.0	8	1.0	0.0	500.0	8	1.1	0.9				
	455	2	0.0	0.0	0.0	0.0	8	1.0	0.0	500.0	8	1.1	0.9				
	456	2	0.0	0.0	0.0	0.0	8	1.0	0.0	500.0	8	1.1	0.9				
	457	2	0.0	0.0	0.0	0.0	8	1.0	0.0	500.0	8	1.1	0.9				
	458	2	0.0	0.0	0.0	0.0	8	1.0	0.0	500.0	8	1.1	0.9				
	459	2	0.0	0.0	0.0	0.0	8	1.0	0.0	500.0	8	1.1	0.9				
	460	2	0.0	0.0	0.0	0.0	8	1.0	0.0	500.0	8	1.1	0.9				
	461	2	0.0	0.0	0.0	0.0	8	1.0	0.0	500.0	8	1.1	0.9				
	462	2	0.0	0.0	0.0	0.0	8	1.0	0.0	500.0	8	1.1	0.9				
	463	1	250.17000000000002	-34.38	0.0	0.0	8	1.0	0.0	500.0	8	1.1	0.9				
	464	2	0.0	0.0	0.0	0.0	8	1.0	0.0	500.0	8	1.1	0.9				
	465	2	0.0	0.0	0.0	0.0	8	1.0	0.0	500.0	8	1.1	0.9				
	466	1	17.04	0.0	0.0	-104.05	8	1.0	0.0	500.0	8	1.1	0.9				
	467	1	0.0	0.0	0.0	0.0	8	1.0	0.0	500.0	8	1.1	0.9				
	468	2	17.04	0.0	0.0	0.0	8	1.0	0.0	500.0	8	1.1	0.9				
	469	2	0.0	0.0	0.0	0.0	8	1.0	0.0	500.0	8	1.1	0.9				
	470	2	14.610000000000001	0.0	0.0	2.62	8	1.0	0.0	500.0	8	1.1	0.9				
	471	1	0.0	0.0	0.0	-290.61	8	1.0	0.0	500.0	8	1.1	0.9				
	472	1	0.0	0.0	0.0	0.0	8	1.0	0.0	500.0	8	1.1	0.9				
	473	1	0.0	0.0	0.0	0.0	8	1.0	0.0	500.0	8	1.1	0.9				
	474	1	281.67	-25.980000000000004	0.0	4.48	8	1.0	0.0	500.0	8	1.1	0.9				
	475	1	635.4	-89.22	0.0	5.8	8	1.0	0.0	500.0	8	1.1	0.9				
	476	1	14.610000000000001	0.0	0.0	0.0	8	1.0	0.0	500.0	8	1.1	0.9				
	477	1	286.67	-139.91	0.0	0.0	8	1.0	0.0	500.0	8	1.1	0.9				
	478	1	0.0	0.0	0.0	64.76	8	1.0	0.0	500.0	8	1.1	0.9				
	479	1	1789.05	135.84	0.0	39.39	8	1.0	0.0	500.0	8	1.1	0.9				
	480	2	0.0	0.0	0.0	0.0	8	1.0	0.0	500.0	8	1.1	0.9				
	481	1	0.0	0.0	0.0	0.0	8	1.0	0.0	500.0	8	1.1	0.9				
	482	1	0.0	0.0	0.0	0.0	8	1.0	0.0	500.0	8	1.1	0.9				
	483	1	289.31	23.88	0.0	7.829999999999999	8	1.0	0.0	500.0	8	1.1	0.9				
	484	1	244.01999999999998	-47.82	0.0	3.7000000000000006	8	1.0	0.0	500.0	8	1.1	0.9				
	485	1	0.0	0.0	0.0	1.6500000000000001	8	1.0	0.0	138.0	8	1.1	0.9				
	486	1	455.22	152.85	0.0	86.32	8	1.0	0.0	138.0	8	1.1	0.9				
	487	1	101.99000000000001	36.24	0.0	5.2	8	1.0	0.0	138.0	8	1.1	0.9				
	488	2	309.47	101.63	0.0	66.38	8	1.0	0.0	138.0	8	1.1	0.9				
	489	2	309.47	101.64999999999999	0.0	66.22	8	1.0	0.0	138.0	8	1.1	0.9				
	490	1	168.21	52.06000000000001	0.0	30.990000000000002	8	1.0	0.0	138.0	8	1.1	0.9				
	491	1	168.21	52.05	0.0	30.959999999999997	8	1.0	0.0	138.0	8	1.1	0.9				
	492	1	673.97	20.18	0.0	-2.88	8	1.0	0.0	138.0	8	1.1	0.9				
	493	1	207.45	28.79	0.0	-1.56	8	1.0	0.0	138.0	8	1.1	0.9				
	494	1	285.46	91.67	0.0	29.39	8	1.0	0.0	138.0	8	1.1	0.9				
	495	1	304.65	97.77	0.0	35.34	8	1.0	0.0	138.0	8	1.1	0.9				
	496	1	0.0	0.0	0.0	0.0	8	1.0	0.0	33.0	8	1.1	0.9				
	497	1	0.0	0.0	0.0	0.0	8	1.0	0.0	33.0	8	1.1	0.9				
	498	1	0.0	0.0	0.0	0.0	8	1.0	0.0	33.0	8	1.1	0.9				
	499	1	188.55	74.46	0.0	19.61	8	1.0	0.0	138.0	8	1.1	0.9				
	500	1	97.01	29.909999999999997	0.0	7.1	8	1.0	0.0	138.0	8	1.1	0.9				
	501	1	97.01	29.909999999999997	0.0	7.48	8	1.0	0.0	138.0	8	1.1	0.9				
	502	1	223.03000000000003	78.3	0.0	9.01	8	1.0	0.0	138.0	8	1.1	0.9				
	503	1	0.0	0.0	0.0	0.0	8	1.0	0.0	500.0	8	1.1	0.9				
	504	1	0.0	0.0	0.0	2.95	8	1.0	0.0	138.0	8	1.1	0.9				
	505	1	0.0	0.0	0.0	5.3	8	1.0	0.0	66.0	8	1.1	0.9				
	506	1	147.36	58.19	0.0	8.96	8	1.0	0.0	138.0	8	1.1	0.9				
	507	2	0.0	0.0	0.0	0.0	9	1.0	0.0	345.0	9	1.1	0.9				
	508	1	0.53	-0.4	0.0	0.0	9	1.0	0.0	138.0	9	1.1	0.9				
	509	2	4.18	3.46	0.0	0.0	9	1.0	0.0	138.0	9	1.1	0.9				
	510	1	7.490000000000001	4.58	0.0	0.0	9	1.0	0.0	138.0	9	1.1	0.9				
	511	1	8.77	2.66	0.0	0.0	9	1.0	0.0	138.0	9	1.1	0.9				
	512	1	4.7	1.87	0.0	0.0	9	1.0	0.0	138.0	9	1.1	0.9				
	513	1	4.45	1.77	0.0	0.0	9	1.0	0.0	138.0	9	1.1	0.9				
	514	1	5.85	2.2	0.0	0.0	9	1.0	0.0	138.0	9	1.1	0.9				
	515	1	0.0	0.0	0.0	0.0	9	1.0	0.0	138.0	9	1.1	0.9				
	516	1	3.92	2.62	0.0	0.0	9	1.0	0.0	138.0	9	1.1	0.9				
	517	1	0.0	0.0	0.0	0.0	9	1.0	0.0	138.0	9	1.1	0.9				
	518	1	3.3099999999999996	1.1	0.0	0.0	9	1.0	0.0	138.0	9	1.1	0.9				
	519	1	0.0	0.0	0.0	0.0	9	1.0	0.0	138.0	9	1.1	0.9				
	520	1	19.55	6.83	0.0	0.0	9	1.0	0.0	138.0	9	1.1	0.9				
	521	1	3.9800000000000004	1.6200000000000003	0.0	0.0	9	1.0	0.0	138.0	9	1.1	0.9				
	522	1	4.7	1.86	0.0	0.0	9	1.0	0.0	138.0	9	1.1	0.9				
	523	1	0.8500000000000001	0.38	0.0	0.0	9	1.0	0.0	138.0	9	1.1	0.9				
	524	1	0.0	0.0	0.0	0.0	9	1.0	0.0	138.0	9	1.1	0.9				
	525	1	0.0	0.0	0.0	0.0	9	1.0	0.0	138.0	9	1.1	0.9				
	526	1	9.0	5.0	0.0	0.0	9	1.0	0.0	138.0	9	1.1	0.9				
	527	2	9.14	8.9	0.0	0.0	9	1.0	0.0	138.0	9	1.1	0.9				