%% MATPOWER Case Format : Version 2
function mpc = pglib_opf_case1354_pegase
mpc.version = '2';

%%-----  Power Flow Data  -----%%
%% system MVA base
mpc.baseMVA = 100.0;
%% bus data
%    bus_i    type    Pd    Qd    Gs    Bs    area    Vm    Va    baseKV    zone    Vmax    Vmin
mpc.bus = [
	3	1	151.0	48.8	0.0	4.69	0	1.0	0.0	220.0	5	1.1	0.9				
	4	1	171.41	23.4	0.0	2.1	0	1.0	0.0	220.0	5	1.1	0.9				
	10	1	134.0	24.7	0.0	12.44	0	1.0	0.0	220.0	5	1.1	0.9				
	21	1	161.2	39.3	0.0	30.709999999999997	0	1.0	0.0	220.0	5	1.1	0.9				
	22	1	0.0	0.0	0.0	0.8500000000000001	0	1.0	0.0	220.0	5	1.1	0.9				
	26	1	167.3	54.79999999999999	0.0	110.54000000000002	0	1.0	0.0	380.0	5	1.1	0.9				
	29	1	152.9	49.4	0.0	27.65	0	1.0	0.0	380.0	5	1.1	0.9				
	44	1	0.0	0.0	0.0	7.2700000000000005	0	1.0	0.0	220.0	5	1.1	0.9				
	53	1	48.65	16.1	0.0	7.139999999999999	0	1.0	0.0	220.0	5	1.1	0.9				
	58	1	0.0	0.0	0.0	2.31	0	1.0	0.0	380.0	5	1.1	0.9				
	59	1	119.19999999999999	20.7	0.0	3.3099999999999996	0	1.0	0.0	220.0	5	1.1	0.9				
	90	1	363.25	115.38999999999999	0.0	3.95	0	1.0	0.0	220.0	5	1.1	0.9				
	96	1	-8.4	28.660000000000004	0.0	3.49	0	1.0	0.0	220.0	5	1.1	0.9				
	113	1	0.0	0.0	0.0	6.532710999999999	0	1.0	0.0	380.0	5	1.1	0.9				
	115	1	0.0	0.0	0.0	4.21	0	1.0	0.0	220.0	5	1.1	0.9				
	118	1	704.53	-35.33	0.0	13.102834	0	1.0	0.0	380.0	5	1.1	0.9				
	124	2	0.0	0.0	0.0	0.0	0	1.0	0.0	220.0	5	1.1	0.9				
	128	1	23.73	12.7	0.0	0.52	0	1.0	0.0	220.0	5	1.1	0.9				
	145	1	38.34	5.6	0.0	7.64	0	1.0	0.0	220.0	5	1.1	0.9				
	148	1	32.34	12.0	0.0	6.1	0	1.0	0.0	220.0	5	1.1	0.9				
	150	2	0.0	0.0	0.0	0.0	0	1.0	0.0	220.0	5	1.1	0.9				
	163	1	147.76	32.73	0.0	8.34	0	1.0	0.0	220.0	5	1.1	0.9				
	171	1	100.8	13.200000000000001	0.0	5.24	0	1.0	0.0	220.0	5	1.1	0.9				
	174	1	370.5	-17.0	0.0	9.91	0	1.0	0.0	220.0	5	1.1	0.9				
	184	1	0.0	0.0	0.0	2.42	0	1.0	0.0	220.0	5	1.1	0.9				
	188	1	36.84	13.900000000000002	0.0	3.3000000000000003	0	1.0	0.0	220.0	5	1.1	0.9				
	195	1	73.14	21.55	0.0	8.52	0	1.0	0.0	220.0	5	1.1	0.9				
	196	1	0.0	0.0	0.0	12.48	0	1.0	0.0	220.0	5	1.1	0.9				
	198	1	39.74	11.8	0.0	1.44	0	1.0	0.0	220.0	5	1.1	0.9				
	207	1	321.98	84.4	0.0	1.34	0	1.0	0.0	220.0	5	1.1	0.9				
	216	1	155.6	54.7	0.0	2.21	0	1.0	0.0	220.0	5	1.1	0.9				
	217	1	105.2	0.1	0.0	7.359999999999999	0	1.0	0.0	220.0	5	1.1	0.9				
	218	1	69.83	15.120000000000001	0.0	2.23	0	1.0	0.0	220.0	5	1.1	0.9				
	221	2	0.0	0.0	0.0	0.0	0	1.0	0.0	380.0	5	1.1	0.9				
	225	1	0.0	0.0	0.0	1.15	0	1.0	0.0	220.0	5	1.1	0.9				
	280	1	119.6	29.600000000000005	0.0	5.34	0	1.0	0.0	220.0	5	1.1	0.9				
	283	1	27.33	11.9	0.0	1.17	0	1.0	0.0	220.0	5	1.1	0.9				
	292	1	13.819999999999999	1.4	0.0	0.7	0	1.0	0.0	220.0	5	1.1	0.9				
	305	1	103.0	12.0	0.0	0.63	0	1.0	0.0	220.0	5	1.1	0.9				
	306	1	0.0	0.0	0.0	4.76	0	1.0	0.0	220.0	5	1.1	0.9				
	314	1	163.1	46.3	0.0	10.6	0	1.0	0.0	220.0	5	1.1	0.9				
	333	1	524.5	43.0	0.0	6.849999999999999	0	1.0	0.0	220.0	5	1.1	0.9				
	338	2	0.0	0.0	0.0	0.0	0	1.0	0.0	220.0	5	1.1	0.9				
	346	1	197.5	48.3	0.0	0.71	0	1.0	0.0	220.0	5	1.1	0.9				
	350	1	110.4	26.200000000000003	0.0	5.62	0	1.0	0.0	220.0	5	1.1	0.9				
	352	2	0.0	0.0	0.0	0.0	0	1.0	0.0	380.0	5	1.1	0.9				
	367	1	65.17	-51.5	0.0	4.85	0	1.0	0.0	220.0	5	1.1	0.9				
	401	1	56.49999999999999	36.29	0.0	3.08	0	1.0	0.0	220.0	5	1.1	0.9				
	408	1	129.1	7.400000000000001	0.0	0.04	0	1.0	0.0	220.0	5	1.1	0.9				
	410	1	170.89	50.38	0.0	6.4399999999999995	0	1.0	0.0	220.0	5	1.1	0.9				
	413	2	0.0	0.0	0.0	0.0	0	1.0	0.0	220.0	5	1.1	0.9				
	416	1	70.68	13.5	0.0	6.959999999999999	0	1.0	0.0	220.0	5	1.1	0.9				
	426	1	123.1	6.5	0.0	3.25	0	1.0	0.0	220.0	5	1.1	0.9				
	432	1	0.0	0.0	0.0	68.517663	0	1.0	0.0	380.0	5	1.1	0.9				
	444	1	0.0	0.0	0.0	2.45	0	1.0	0.0	220.0	5	1.1	0.9				
	449	1	0.0	0.0	0.0	29.42	0	1.0	0.0	380.0	5	1.1	0.9				
	453	2	0.0	0.0	0.0	0.0	0	1.0	0.0	380.0	5	1.1	0.9				
	455	1	274.32	5.66	0.0	13.239999999999998	0	1.0	0.0	220.0	5	1.1	0.9				
	490	1	20.52	4.0	0.0	2.77	0	1.0	0.0	220.0	5	1.1	0.9				
	500	1	144.4	35.5	0.0	7.66	0	1.0	0.0	220.0	5	1.1	0.9				
	502	1	0.0	0.0	0.0	1.96	0	1.0	0.0	220.0	5	1.1	0.9				
	506	1	0.0	0.0	0.0	0.4	0	1.0	0.0	380.0	5	1.1	0.9				
	513	1	57.46	17.1	0.0	1.6099999999999999	0	1.0	0.0	220.0	5	1.1	0.9				
	516	2	0.0	0.0	0.0	0.0	0	1.0	0.0	220.0	5	1.1	0.9				
	520	1	118.5	20.4	0.0	2.57	0	1.0	0.0	220.0	5	1.1	0.9				
	549	1	0.0	0.0	0.0	5.15	0	1.0	0.0	220.0	5	1.1	0.9				
	554	1	0.0	0.0	0.0	1.97	0	1.0	0.0	220.0	5	1.1	0.9				
	556	1	16.52	9.0	0.0	1.17	0	1.0	0.0	220.0	5	1.1	0.9				
	561	1	0.0	0.0	0.0	0.32	0	1.0	0.0	220.0	5	1.1	0.9				
	564	2	0.0	0.0	0.0	0.0	0	1.0	0.0	220.0	5	1.1	0.9				
	575	1	0.0	0.0	0.0	0.67	0	1.0	0.0	220.0	5	1.1	0.9				
	583	2	0.0	0.0	0.0	0.0	0	1.0	0.0	220.0	5	1.1	0.9				
	594	1	67.57	17.0	0.0	5.75	0	1.0	0.0	220.0	5	1.1	0.9				
	601	1	140.6	42.6	0.0	5.71	0	1.0	0.0	220.0	5	1.1	0.9				
	604	1	33.24	4.4	0.0	24.54	0	1.0	0.0	380.0	5	1.1	0.9				
	608	1	150.9	10.4	0.0	4.77	0	1.0	0.0	220.0	5	1.1	0.9				
	609	1	0.0	0.0	0.0	5.67	0	1.0	0.0	220.0	5	1.1	0.9				
	615	2	0.0	0.0	0.0	0.0	0	1.0	0.0	220.0	5	1.1	0.9				
	616	2	0.0	0.0	0.0	0.0	0	1.0	0.0	220.0	5	1.1	0.9				
	619	1	72.88	14.400000000000002	0.0	2.96	0	1.0	0.0	220.0	5	1.1	0.9				
	639	2	0.0	0.0	0.0	0.0	0	1.0	0.0	220.0	5	1.1	0.9				
	641	1	45.32	18.5	0.0	0.74	0	1.0	0.0	220.0	5	1.1	0.9				
	658	1	258.4	66.7	0.0	5.87	0	1.0	0.0	220.0	5	1.1	0.9				
	661	1	0.0	0.0	0.0	0.6	0	1.0	0.0	380.0	5	1.1	0.9				
	666	1	-5.61	-2.79	0.0	150.93	0	1.0	0.0	380.0	5	1.1	0.9				
	678	1	232.09999999999997	89.8	0.0	0.09	0	1.0	0.0	220.0	5	1.1	0.9				
	682	2	0.0	0.0	0.0	0.0	0	1.0	0.0	220.0	5	1.1	0.9				
	687	1	0.0	0.0	0.0	5.6	0	1.0	0.0	220.0	5	1.1	0.9				
	707	1	83.99	21.2	0.0	5.36	0	1.0	0.0	220.0	5	1.1	0.9				
	718	1	135.11	41.0	0.0	5.31	0	1.0	0.0	220.0	5	1.1	0.9				
	720	1	0.0	0.0	0.0	23.554121	0	1.0	0.0	380.0	5	1.1	0.9				
	726	1	400.3	189.9	0.0	0.53	0	1.0	0.0	220.0	5	1.1	0.9				
	742	1	0.0	0.0	0.0	2.83	0	1.0	0.0	220.0	5	1.1	0.9				
	747	1	69.58	16.0	0.0	3.03	0	1.0	0.0	220.0	5	1.1	0.9				
	749	2	0.0	0.0	0.0	0.0	0	1.0	0.0	220.0	5	1.1	0.9				
	750	1	0.0	0.0	0.0	18.63	0	1.0	0.0	220.0	5	1.1	0.9				
	757	2	0.0	0.0	0.0	0.0	0	1.0	0.0	380.0	5	1.1	0.9				
	766	1	0.0	0.0	0.0	7.85	0	1.0	0.0	220.0	5	1.1	0.9				
	769	1	152.57	40.0	0.0	6.12	0	1.0	0.0	220.0	5	1.1	0.9				
	772	1	343.9	141.9	0.0	5.55	0	1.0	0.0	220.0	5	1.1	0.9				
	776	2	0.0	0.0	0.0	0.0	0	1.0	0.0	220.0	5	1.1	0.9				
	778	2	0.0	0.0	0.0	0.0	0	1.0	0.0	220.0	5	1.1	0.9				
	789	1	0.0	0.0	0.0	6.63	0	1.0	0.0	220.0	5	1.1	0.9				
	795	2	0.0	0.0	0.0	0.0	0	1.0	0.0	220.0	5	1.1	0.9				
	800	1	50.56	18.0	0.0	0.11	0	1.0	0.0	220.0	5	1.1	0.9				
	803	2	0.0	0.0	0.0	0.0	0	1.0	0.0	220.0	5	1.1	0.9				
	804	1	0.0	0.0	0.0	7.26	0	1.0	0.0	220.0	5	1.1	0.9				
	805	1	124.50000000000001	29.600000000000005	0.0	15.4	0	1.0	0.0	220.0	5	1.1	0.9				
	809	1	0.0	0.0	0.0	58.08868700000001	0	1.0	0.0	380.0	5	1.1	0.9				
	819	1	0.0	0.0	0.0	0.22	0	1.0	0.0	220.0	5	1.1	0.9				
	823	2	0.0	0.0	0.0	0.0	0	1.0	0.0	380.0	5	1.1	0.9				
	839	1	0.0	0.0	0.0	8.17514	0	1.0	0.0	380.0	5	1.1	0.9				
	851	2	0.0	0.0	0.0	0.0	0	1.0	0.0	220.0	5	1.1	0.9				
	858	2	0.0	0.0	0.0	0.0	0	1.0	0.0	380.0	5	1.1	0.9				
	870	1	110.00000000000001	3.4000000000000004	0.0	11.95	0	1.0	0.0	220.0	5	1.1	0.9				
	871	1	108.89	-21.76	0.0	3.72	0	1.0	0.0	220.0	5	1.1	0.9				
	883	1	192.5	78.3	0.0	6.65	0	1.0	0.0	220.0	5	1.1	0.9				
	891	2	0.0	0.0	0.0	0.0	0	1.0	0.0	380.0	5	1.1	0.9				
	892	1	0.0	0.0	0.0	9.1	0	1.0	0.0	220.0	5	1.1	0.9				
	900	1	0.0	0.0	0.0	0.15	0	1.0	0.0	220.0	5	1.1	0.9				
	903	1	82.69	20.1	0.0	1.36	0	1.0	0.0	220.0	5	1.1	0.9				
	905	1	631.71	-54.16	0.0	7.534129	0	1.0	0.0	380.0	5	1.1	0.9				
	907	1	0.0	0.0	0.0	0.05	0	1.0	0.0	220.0	5	1.1	0.9				
	908	1	125.9	-0.5	0.0	0.21	0	1.0	0.0	220.0	5	1.1	0.9				
	920	1	34.44	8.5	0.0	1.11	0	1.0	0.0	220.0	5	1.1	0.9				
	923	1	62.07	14.7	0.0	4.84	0	1.0	0.0	220.0	5	1.1	0.9				
	933	1	0.0	0.0	0.0	22.75	0	1.0	0.0	220.0	5	1.1	0.9				
	935	1	0.0	0.0	0.0	9.46	0	1.0	0.0	220.0	5	1.1	0.9				
	953	1	108.7	-12.15	0.0	37.11	0	1.0	0.0	380.0	5	1.1	0.9				
	954	1	66.27	13.600000000000001	0.0	0.67	0	1.0	0.0	220.0	5	1.1	0.9				
	960	1	0.0	0.0	0.0	108.72860199999998	0	1.0	0.0	380.0	5	1.1	0.9				
	964	1	88.5	16.5	0.0	146.44	0	1.0	0.0	380.0	5	1.1	0.9				
	972	2	0.0	0.0	0.0	0.0	0	1.0	0.0	380.0	5	1.3	0.7				
	980	1	14.71	4.6	0.0	7.88	0	1.0	0.0	220.0	5	1.1	0.9				
	1001	2	0.0	0.0	0.0	0.0	0	1.0	0.0	220.0	5	1.1	0.9				
	1002	2	0.0	0.0	0.0	0.0	0	1.0	0.0	220.0	5	1.1	0.9				
	1005	1	0.0	0.0	0.0	0.8100000000000002	0	1.0	0.0	220.0	5	1.1	0.9				
	1015	1	44.55	0.0	0.0	4.78	0	1.0	0.0	220.0	5	1.1	0.9				
	1026	1	201.40000000000003	53.0	0.0	9.67	0	1.0	0.0	220.0	5	1.1	0.9				
	1027	1	-5.91	-2.33	0.0	30.393595	0	1.0	0.0	380.0	5	1.1	0.9				
	1033	1	26.33	5.3	0.0	4.31	0	1.0	0.0	220.0	5	1.1	0.9				
	1035	1	382.5	57.9	0.0	8.16	0	1.0	0.0	220.0	5	1.1	0.9				
	1039	1	34.64	0.0	0.0	0.91	0	1.0	0.0	220.0	5	1.1	0.9				
	1040	1	31.94	8.8	0.0	3.7900000000000005	0	1.0	0.0	220.0	5	1.1	0.9				
	1043	2	0.0	0.0	0.0	0.0	0	1.0	0.0	380.0	5	1.1	0.9				
	1051	1	0.0	0.0	0.0	3.7900000000000005	0	1.0	0.0	220.0	5	1.1	0.9				
	1077	1	0.0	0.0	0.0	0.1	0	1.0	0.0	220.0	5	1.1	0.9				
	1078	1	0.0	0.0	0.0	4.74	0	1.0	0.0	220.0	5	1.1	0.9				
	1081	1	277.86	58.95	0.0	182.880644	0	1.0	0.0	380.0	5	1.1	0.9				
	1083	2	0.0	0.0	0.0	0.0	0	1.0	0.0	220.0	5	1.1	0.9				
	1090	1	56.06	18.7	0.0	4.24	0	1.0	0.0	220.0	5	1.1	0.9				
	1093	2	0.0	0.0	0.0	0.0	0	1.0	0.0	380.0	5	1.1	0.9				
	1096	1	0.0	0.0	0.0	0.16	0	1.0	0.0	220.0	5	1.1	0.9				
	1100	2	0.0	0.0	0.0	0.0	0	1.0	0.0	220.0	5	1.1	0.9				
	1101	1	0.0	0.0	0.0	2.05	0	1.0	0.0	220.0	5	1.1	0.9				
	1102	2	0.0	0.0	0.0	0.0	0	1.0	0.0	220.0	5	1.1	0.9				
	1105	1	29.830000000000002	7.3	0.0	6.49	0	1.0	0.0	220.0	5	1.1	0.9				
	1111	1	0.0	0.0	0.0	1.1	0	1.0	0.0	220.0	5	1.1	0.9				
	1129	1	190.47	55.03	0.0	6.7	0	1.0	0.0	220.0	5	1.1	0.9				
	1136	1	16.22	2.0	0.0	0.71	0	1.0	0.0	220.0	5	1.1	0.9				
	1137	1	0.0	0.0	0.0	0.05	0	1.0	0.0	220.0	5	1.1	0.9				
	1146	1	32.84	0.0	0.0	1.41	0	1.0	0.0	220.0	5	1.1	0.9				
	1151	1	0.0	0.0	0.0	18.82	0	1.0	0.0	220.0	5	1.1	0.9				
	1153	1	12.41	3.9	0.0	2.23	0	1.0	0.0	220.0	5	1.1	0.9				
	1156	1	65.67	24.0	0.0	9.95	0	1.0	0.0	220.0	5	1.1	0.9				
	1159	1	112.4	13.0	0.0	3.9900000000000007	0	1.0	0.0	220.0	5	1.1	0.9				
	1172	1	0.0	0.0	0.0	2.3	0	1.0	0.0	220.0	5	1.1	0.9				
	1179	1	86.6	23.4	0.0	0.39	0	1.0	0.0	220.0	5	1.1	0.9				
	1183	1	199.4	-19.9	0.0	6.68	0	1.0	0.0	220.0	5	1.1	0.9				
	1187	1	67.57	21.2	0.0	5.71	0	1.0	0.0	220.0	5	1.1	0.9				
	1188	1	30.930000000000003	6.6000000000000005	0.0	9.09	0	1.0	0.0	220.0	5	1.1	0.9				
	1194	1	129.6	13.3	0.0	13.98	0	1.0	0.0	380.0	5	1.1	0.9				
	1198	1	0.0	0.0	0.0	30.637696	0	1.0	0.0	380.0	5	1.1	0.9				
	1201	1	114.1	23.5	0.0	1.08	0	1.0	0.0	220.0	5	1.1	0.9				
	1216	1	0.0	0.0	0.0	4.93	0	1.0	0.0	220.0	5	1.1	0.9				
	1233	1	0.0	0.0	0.0	1.72	0	1.0	0.0	220.0	5	1.1	0.9				
	1234	1	71.78	17.9	0.0	1.96	0	1.0	0.0	220.0	5	1.1	0.9				
	1237	2	0.0	0.0	0.0	0.0	0	1.0	0.0	380.0	5	1.3	0.7				
	1248	1	0.0	0.0	0.0	1.17	0	1.0	0.0	220.0	5	1.1	0.9				
	1249	1	348.93	26.47	0.0	9.36	0	1.0	0.0	380.0	5	1.1	0.9				
	1251	2	0.0	0.0	0.0	0.0	0	1.0	0.0	380.0	5	1.1	0.9				
	1262	1	0.0	0.0	0.0	10.73	0	1.0	0.0	220.0	5	1.1	0.9				
	1265	1	173.0	-21.3	0.0	5.93	0	1.0	0.0	220.0	5	1.1	0.9				
	1275	1	52.459999999999994	2.9	0.0	0.35	0	1.0	0.0	220.0	5	1.1	0.9				
	1295	2	0.0	0.0	0.0	0.0	0	1.0	0.0	220.0	5	1.1	0.9				
	1301	1	479.0	99.2	0.0	10.68	0	1.0	0.0	220.0	5	1.1	0.9				
	1305	1	0.0	0.0	0.0	4.34	0	1.0	0.0	220.0	5	1.1	0.9				
	1311	1	37.94	15.2	0.0	35.31	0	1.0	0.0	380.0	5	1.1	0.9				
	1326	1	0.0	0.0	0.0	0.98	0	1.0	0.0	220.0	5	1.1	0.9				
	1334	1	0.0	0.0	0.0	0.59	0	1.0	0.0	220.0	5	1.1	0.9				
	1341	2	0.0	0.0	0.0	0.0	0	1.0	0.0	220.0	5	1.1	0.9				
	1343	1	0.0	0.0	0.0	58.3	0	1.0	0.0	380.0	5	1.1	0.9				
	1354	2	0.0	0.0	0.0	0.0	0	1.0	0.0	220.0	5	1.1	0.9				
	1355	1	-3.29	-1.32	0.0	190.704588	0	1.0	0.0	380.0	5	1.1	0.9				
	1364	1	40.85	14.499999999999998	0.0	0.59	0	1.0	0.0	220.0	5	1.1	0.9				
	1380	1	145.2	21.4	0.0	1.09	0	1.0	0.0	220.0	5	1.1	0.9				
	1394	1	30.930000000000003	7.6	0.0	4.69	0	1.0	0.0	220.0	5	1.1	0.9				
	1397	1	0.0	0.0	0.0	2.14	0	1.0	0.0	220.0	5	1.1	0.9				
	1398	1	196.7	44.2	0.0	0.1	0	1.0	0.0	220.0	5	1.1	0.9				
	1401	1	11.91	2.9	0.0	5.27	0	1.0	0.0	220.0	5	1.1	0.9				
	1414	1	144.7	20.3	0.0	6.35	0	1.0	0.0	220.0	5	1.1	0.9				
	1415	1	0.0	0.0	0.0	0.3	0	1.0	0.0	220.0	5	1.1	0.9				
	1422	2	0.0	0.0	0.0	0.0	0	1.0	0.0	220.0	5	1.1	0.9				
	1435	1	0.0	0.0	0.0	3.85	0	1.0	0.0	220.0	5	1.1	0.9				
	1436	2	0.0	0.0	0.0	0.0	0	1.0	0.0	220.0	5	1.1	0.9				
	1448	1	0.0	0.0	0.0	9.49	0	1.0	0.0	220.0	5	1.1	0.9				
	1459	1	0.0	0.0	0.0	3.38	0	1.0	0.0	220.0	5	1.1	0.9				
	1462	1	0.0	0.0	0.0	0.42	0	1.0	0.0	220.0	5	1.1	0.9				
	1465	1	-11.03	-5.11	0.0	29.706802999999997	0	1.0	0.0	380.0	5	1.1	0.9				
	1478	2	0.0	0.0	0.0	0.0	0	1.0	0.0	220.0	5	1.1	0.9				
	1483	1	0.0	0.0	0.0	4.86	0	1.0	0.0	220.0	5	1.1	0.9				
	1486	1	79.59	18.8	0.0	6.78	0	1.0	0.0	220.0	5	1.1	0.9				
	1494	1	-1.8500000000000003	-1.63	0.0	31.424587999999996	0	1.0	0.0	380.0	5	1.1	0.9				
	1502	1	0.0	0.0	0.0	37.116157	0	1.0	0.0	380.0	5	1.1	0.9				
	1504	1	0.0	0.0	0.0	1.8399999999999999	0	1.0	0.0	220.0	5	1.1	0.9				
	1526	1	-10.86	-5.93	0.0	12.54	0	1.0	0.0	220.0	5	1.1	0.9				
	1538	1	36.34	15.2	0.0	0.3	0	1.0	0.0	220.0	5	1.1	0.9				
	1539	1	73.58	3.2400000000000007	0.0	52.349999999999994	0	1.0	0.0	220.0	5	1.1	0.9				
	1541	1	125.4	45.8	0.0	0.0	0	1.0	0.0	220.0	5	1.1	0.9				
	1545	1	42.55	8.2	0.0	2.06	0	1.0	0.0	220.0	5	1.1	0.9				
	1547	1	0.0	0.0	0.0	1.02	0	1.0	0.0	220.0	5	1.1	0.9				
	1551	1	0.0	0.0	0.0	7.99	0	1.0	0.0	220.0	5	1.1	0.9				
	1552	1	20.42	8.1	0.0	35.15	0	1.0	0.0	380.0	5	1.1	0.9				
	1554	1	0.0	0.0	0.0	4.96	0	1.0	0.0	220.0	5	1.1	0.9				
	1556	1	0.0	0.0	0.0	0.95	0	1.0	0.0	220.0	5	1.1	0.9				
	1562	1	77.39	24.1	0.0	2.67	0	1.0	0.0	220.0	5	1.1	0.9				
	1566	1	156.9	-4.0	0.0	2.48	0	1.0	0.0	220.0	5	1.1	0.9				
	1568	1	69.08	21.5	0.0	1.6500000000000001	0	1.0	0.0	220.0	5	1.1	0.9				
	1578	1	0.0	0.0	0.0	1.38	0	1.0	0.0	220.0	5	1.1	0.9				
	1584	1	0.0	0.0	0.0	3.2400000000000007	0	1.0	0.0	220.0	5	1.1	0.9				
	1592	1	28.33	44.8	0.0	0.51	0	1.0	0.0	220.0	5	1.1	0.9				
	1595	1	71.77	13.570000000000002	0.0	3.84	0	1.0	0.0	220.0	5	1.1	0.9				
	1604	2	0.0	0.0	0.0	0.0	0	1.0	0.0	220.0	5	1.1	0.9				
	1605	1	0.0	0.0	0.0	0.05	0	1.0	0.0	220.0	5	1.1	0.9				
	1607	1	73.78	0.0	0.0	2.69	0	1.0	0.0	380.0	5	1.1	0.9				
	1609	1	0.0	0.0	0.0	6.550000000000001	0	1.0	0.0	220.0	5	1.1	0.9				
	1625	1	73.18	22.3	0.0	8.77	0	1.0	0.0	220.0	5	1.1	0.9				
	1629	1	41.95	8.5	0.0	1.05	0	1.0	0.0	220.0	5	1.1	0.9				
	1642	2	0.0	0.0	0.0	0.0	0	1.0	0.0	380.0	5	1.1	0.9				
	1643	1	95.71	25.900000000000002	0.0	11.38	0	1.0	0.0	220.0	5	1.1	0.9				
	1644	1	449.55999999999995	245.71999999999997	0.0	94.55	0	1.0	0.0	380.0	5	1.1	0.9				
	1662	1	3.6699999999999995	-1.86	0.0	3.8900000000000006	0	1.0	0.0	220.0	5	1.1	0.9				
	1672	1	-28.13	-0.83	0.0	0.1	0	1.0	0.0	220.0	5	1.1	0.9				
	1680	2	0.0	0.0	0.0	0.0	0	1.0	0.0	380.0	5	1.1	0.9				
	1692	1	83.19	25.8	0.0	0.33	0	1.0	0.0	220.0	5	1.1	0.9				
	1704	1	62.16	8.0	0.0	2.99	0	1.0	0.0	220.0	5	1.1	0.9				
	1708	2	0.0	0.0	0.0	0.0	0	1.0	0.0	380.0	5	1.1	0.9				
	1709	1	-15.380000000000003	-4.94	0.0	33.241519	0	1.0	0.0	380.0	5	1.1	0.9				
	1711	1	25.129999999999995	-61.6	0.0	3.6799999999999997	0	1.0	0.0	220.0	5	1.1	0.9				
	1721	2	0.0	0.0	0.0	0.0	0	1.0	0.0	220.0	5	1.1	0.9				
	1730	1	-17.18	-4.35	0.0	44.419365	0	1.0	0.0	380.0	5	1.1	0.9				
	1742	1	0.0	0.0	0.0	6.68	0	1.0	0.0	220.0	5	1.1	0.9				
	1746	1	0.0	0.0	0.0	1.86	0	1.0	0.0	220.0	5	1.1	0.9				
	1750	1	58.46	6.6000000000000005	0.0	10.13	0	1.0	0.0	220.0	5	1.1	0.9				
	1754	2	0.0	0.0	0.0	0.0	0	1.0	0.0	380.0	5	1.1	0.9				
	1758	1	0.0	0.0	0.0	121.29	0	1.0	0.0	380.0	5	1.1	0.9				
	1763	1	0.0	0.0	0.0	0.28	0	1.0	0.0	380.0	5	1.1	0.9				
	1767	1	333.5	-1.4	0.0	8.37	0	1.0	0.0	220.0	5	1.1	0.9				
	1768	1	73.98	22.5	0.0	1.15	0	1.0	0.0	220.0	5	1.1	0.9				
	1775	1	0.0	0.0	0.0	1.6399999999999997	0	1.0	0.0	220.0	5	1.1	0.9				
	1794	2	0.0	0.0	0.0	0.0	0	1.0	0.0	380.0	5	1.1	0.9				
	1798	1	-0.63	-0.83	0.0	22.810288	0	1.0	0.0	380.0	5	1.1	0.9				
	1803	1	0.0	0.0	0.0	0.05	0	1.0	0.0	220.0	5	1.1	0.9				
	1808	2	0.0	0.0	0.0	0.0	0	1.0	0.0	220.0	5	1.1	0.9				
	1813	1	88.92	19.79	0.0	2.81	0	1.0	0.0	220.0	5	1.1	0.9				
	1817	1	108.91	33.7	0.0	56.24	0	1.0	0.0	380.0	5	1.1	0.9				
	1833	1	0.0	0.0	0.0	3.3300000000000005	0	1.0	0.0	220.0	5	1.1	0.9				
	1838	1	0.0	0.0	0.0	3.02	0	1.0	0.0	220.0	5	1.1	0.9				
	1844	1	-28.139999999999997	-0.76	0.0	0.1	0	1.0	0.0	220.0	5	1.1	0.9				
	1851	2	0.0	0.0	0.0	0.0	0	1.0	0.0	220.0	5	1.1	0.9				
	1852	2	0.0	0.0	0.0	0.0	0	1.0	0.0	220.0	5	1.1	0.9				
	1857	1	0.0	0.0	0.0	1.53	0	1.0	0.0	220.0	5	1.1	0.9				
	1860	1	88.8	-3.2	0.0	13.63	0	1.0	0.0	220.0	5	1.1	0.9				
	1866	1	209.20000000000002	23.5	0.0	6.4399999999999995	0	1.0	0.0	220.0	5	1.1	0.9				
	1868	1	11.71	3.8	0.0	2.96	0	1.0	0.0	220.0	5	1.1	0.9				
	1876	1	0.0	0.0	0.0	6.273568	0	1.0	0.0	380.0	5	1.1	0.9				
	1883	1	27.33	5.0	0.0	6.77	0	1.0	0.0	220.0	5	1.1	0.9				
	1888	2	0.0	0.0	0.0	0.0	0	1.0	0.0	220.0	5	1.1	0.9				
	1895	1	20.82	0.0	0.0	0.14	0	1.0	0.0	220.0	5	1.1	0.9				
	1896	1	0.0	0.0	0.0	1.18	0	1.0	0.0	380.0	5	1.1	0.9				
	1910	1	0.0	0.0	0.0	2.68	0	1.0	0.0	220.0	5	1.1	0.9				
	1914	2	0.0	0.0	0.0	0.0	0	1.0	0.0	220.0	5	1.1	0.9				
	1917	1	197.5	-31.0	0.0	17.34	0	1.0	0.0	220.0	5	1.1	0.9				
	1923	1	192.11	45.5	0.0	68.04	0	1.0	0.0	380.0	5	1.1	0.9				
	1940	1	0.0	0.0	0.0	1.19	0	1.0	0.0	220.0	5	1.1	0.9				
	1959	2	0.0	0.0	0.0	0.0	0	1.0	0.0	220.0	5	1.1	0.9				
	1965	1	248.70000000000002	8.1	0.0	12.46	0	1.0	0.0	220.0	5	1.1	0.9				
	1973	1	210.1	66.2	0.0	59.36	0	1.0	0.0	220.0	5	1.1	0.9				
	1979	1	0.0	0.0	0.0	0.14	0	1.0	0.0	220.0	5	1.1	0.9				
	1980	1	177.3	36.4	0.0	0.7	0	1.0	0.0	220.0	5	1.1	0.9				
	1998	1	25.730000000000004	7.3	0.0	2.82	0	1.0	0.0	220.0	5	1.1	0.9				
	2012	1	41.45	4.9	0.0	18.43	0	1.0	0.0	220.0	5	1.1	0.9				
	2019	1	72.08	21.3	0.0	7.19	0	1.0	0.0	220.0	5	1.1	0.9				
	2020	1	0.0	0.0	0.0	9.98	0	1.0	0.0	220.0	5	1.1	0.9				
	2021	1	3.9	1.0	0.0	3.81	0	1.0	0.0	220.0	5	1.1	0.9				
	2035	2	0.0	0.0	0.0	0.0	0	1.0	0.0	380.0	5	1.1	0.9				
	2042	1	14.02	6.5	0.0	0.09	0	1.0	0.0	220.0	5	1.1	0.9				
	2043	1	3.2	1.7000000000000002	0.0	0.05	0	1.0	0.0	220.0	5	1.1	0.9				
	2044	1	0.0	0.0	0.0	0.14	0	1.0	0.0	220.0	5	1.1	0.9				
	2050	2	0.0	0.0	0.0	0.0	0	1.0	0.0	380.0	5	1.1	0.9				
	2056	1	0.0	0.0	0.0	7.338808000000001	0	1.0	0.0	380.0	5	1.1	0.9				
	2057	1	120.19999999999999	20.5	0.0	19.94	0	1.0	0.0	220.0	5	1.1	0.9				
	2072	1	101.2	2.1	0.0	38.43	0	1.0	0.0	380.0	5	1.1	0.9				
	2078	1	77.19	18.6	0.0	2.22	0	1.0	0.0	220.0	5	1.1	0.9				
	2079	1	0.0	0.0	0.0	13.94	0	1.0	0.0	220.0	5	1.1	0.9				
	2083	1	121.39999999999999	20.2	0.0	16.61	0	1.0	0.0	220.0	5	1.1	0.9				
	2085	2	0.0	0.0	0.0	0.0	0	1.0	0.0	380.0	5	1.1	0.9				
	2088	1	0.0	0.0	0.0	6.02	0	1.0	0.0	220.0	5	1.1	0.9				
	2089	1	199.86	56.93	0.0	46.83	0	1.0	0.0	220.0	5	1.1	0.9				
	2093	1	-5.64	-2.84	0.0	34.582195	0	1.0	0.0	380.0	5	1.1	0.9				
	2101	1	0.0	0.0	0.0	38.32	0	1.0	0.0	380.0	5	1.1	0.9				
	2128	1	79.09	18.7	0.0	10.8	0	1.0	0.0	220.0	5	1.1	0.9				
	2129	1	0.0	0.0	0.0	56.68651500000001	0	1.0	0.0	380.0	5	1.1	0.9				
	2132	1	107.3	14.2	0.0	20.23	0	1.0	0.0	220.0	5	1.1	0.9				
	2142	1	0.0	0.0	0.0	7.629999999999999	0	1.0	0.0	220.0	5	1.1	0.9				
	2155	1	63.67	20.2	0.0	6.13	0	1.0	0.0	220.0	5	1.1	0.9				
	2161	1	35.66	-9.39	0.0	7.89	0	1.0	0.0	220.0	5	1.1	0.9				
	2166	1	20.92	7.7	0.0	1.21	0	1.0	0.0	220.0	5	1.1	0.9				
	2174	1	0.0	0.0	0.0	61.795782	0	1.0	0.0	380.0	5	1.1	0.9				
	2177	2	0.0	0.0	0.0	0.0	0	1.0	0.0	220.0	5	1.1	0.9				
	2183	1	0.0	0.0	0.0	32.849821	0	1.0	0.0	380.0	5	1.1	0.9				
	2189	1	0.0	0.0	0.0	0.18	0	1.0	0.0	220.0	5	1.1	0.9				
	2197	2	0.0	0.0	0.0	0.0	0	1.0	0.0	380.0	5	1.1	0.9				
	2208	1	74.98	26.899999999999995	0.0	2.96	0	1.0	0.0	220.0	5	1.1	0.9				
	2229	1	0.0	0.0	0.0	2.91	0	1.0	0.0	220.0	5	1.1	0.9				
	2230	1	0.0	0.0	0.0	1.71	0	1.0	0.0	220.0	5	1.1	0.9				
	2231	1	0.0	0.0	0.0	0.45000000000000007	0	1.0	0.0	220.0	5	1.1	0.9				
	2242	1	0.0	0.0	0.0	2.76	0	1.0	0.0	220.0	5	1.1	0.9				
	2252	1	100.70000000000002	-4.2	0.0	1.5700000000000003	0	1.0	0.0	220.0	5	1.1	0.9				
	2273	1	141.3	32.4	0.0	7.290000000000001	0	1.0	0.0	220.0	5	1.1	0.9				
	2276	2	0.0	0.0	0.0	0.0	0	1.0	0.0	220.0	5	1.1	0.9				
	2286	1	208.88	60.8	0.0	6.68	0	1.0	0.0	220.0	5	1.1	0.9				
	2288	1	170.9	39.0	0.0	11.25	0	1.0	0.0	220.0	5	1.1	0.9				
	2291	2	0.0	0.0	0.0	0.0	0	1.0	0.0	220.0	5	1.1	0.9				
	2303	1	0.0	0.0	0.0	7.9399999999999995	0	1.0	0.0	220.0	5	1.1	0.9				
	2304	1	88.7	-0.1	0.0	2.83	0	1.0	0.0	220.0	5	1.1	0.9				
	2308	1	32.04	6.6000000000000005	0.0	0.44	0	1.0	0.0	220.0	5	1.1	0.9				
	2313	1	0.0	0.0	0.0	0.4099999999999999	0	1.0	0.0	220.0	5	1.1	0.9				
	2319	1	39.64	20.9	0.0	0.65	0	1.0	0.0	220.0	5	1.1	0.9				
	2327	1	114.5	25.2	0.0	17.57	0	1.0	0.0	220.0	5	1.1	0.9				
	2328	1	0.0	0.0	0.0	0.4	0	1.0	0.0	220.0	5	1.1	0.9				
	2337	1	103.4	27.0	0.0	1.41	0	1.0	0.0	220.0	5	1.1	0.9				
	2340	1	96.91	13.900000000000002	0.0	3.9800000000000004	0	1.0	0.0	220.0	5	1.1	0.9				
	2341	1	0.0	0.0	0.0	3.2799999999999994	0	1.0	0.0	220.0	5	1.1	0.9				
	2359	2	0.0	0.0	0.0	0.0	0	1.0	0.0	380.0	5	1.1	0.9				
	2360	1	215.49999999999997	31.3	0.0	14.23	0	1.0	0.0	220.0	5	1.1	0.9				
	2361	1	16.9	3.85	0.0	25.09	0	1.0	0.0	220.0	5	1.1	0.9				
	2365	1	37.94	15.4	0.0	117.386167	0	1.0	0.0	380.0	5	1.1	0.9				
	2372	1	0.0	0.0	0.0	14.490904000000002	0	1.0	0.0	380.0	5	1.1	0.9				
	2377	1	101.70000000000002	17.6	0.0	13.140000000000002	0	1.0	0.0	220.0	5	1.1	0.9				
	2393	1	20.82	0.0	0.0	0.13	0	1.0	0.0	220.0	5	1.1	0.9				
	2406	1	0.0	0.0	0.0	1.69	0	1.0	0.0	220.0	5	1.1	0.9				
	2421	2	0.0	0.0	0.0	0.0	0	1.0	0.0	220.0	5	1.1	0.9				
	2424	1	44.55	16.8	0.0	2.31	0	1.0	0.0	220.0	5	1.1	0.9				
	2425	2	0.0	0.0	0.0	0.0	0	1.0	0.0	220.0	5	1.1	0.9				
	2426	2	0.0	0.0	0.0	0.0	0	1.0	0.0	220.0	5	1.1	0.9				
	2430	1	0.0	0.0	0.0	6.21	0	1.0	0.0	220.0	5	1.1	0.9				
	2432	1	291.2	35.4	0.0	21.87	0	1.0	0.0	220.0	5	1.1	0.9				
	2438	1	0.0	0.0	0.0	0.64	0	1.0	0.0	220.0	5	1.1	0.9				
	2446	2	0.0	0.0	0.0	0.0	0	1.0	0.0	380.0	5	1.1	0.9				
	2457	1	30.73	9.6	0.0	2.75	0	1.0	0.0	220.0	5	1.1	0.9				
	2458	1	132.0	26.0	0.0	27.18	0	1.0	0.0	380.0	5	1.1	0.9				
	2467	1	0.0	0.0	0.0	11.65	0	1.0	0.0	220.0	5	1.1	0.9				
	2468	2	0.0	0.0	0.0	0.0	0	1.0	0.0	220.0	5	1.1	0.9				
	2475	1	0.0	0.0	0.0	0.21	0	1.0	0.0	220.0	5	1.1	0.9				
	2479	1	-2.65	-1.17	0.0	65.673108	0	1.0	0.0	380.0	5	1.1	0.9				
	2481	2	0.0	0.0	0.0	0.0	0	1.0	0.0	220.0	5	1.1	0.9				
	2489	2	0.0	0.0	0.0	0.0	0	1.0	0.0	220.0	5	1.1	0.9				
	2503	1	0.0	0.0	0.0	2.09	0	1.0	0.0	220.0	5	1.1	0.9				
	2510	1	115.87	29.410000000000004	0.0	7.919999999999999	0	1.0	0.0	220.0	5	1.1	0.9				
	2518	1	-5.29	-1.91	0.0	42.622979	0	1.0	0.0	380.0	5	1.1	0.9				
	2526	1	238.45000000000002	46.86	0.0	125.53449599999999	0	1.0	0.0	380.0	5	1.1	0.9				
	2527	1	59.77	16.7	0.0	0.64	0	1.0	0.0	220.0	5	1.1	0.9				
	2535	1	51.56	2.1	0.0	0.18	0	1.0	0.0	220.0	5	1.1	0.9				
	2550	2	0.0	0.0	0.0	0.0	0	1.0	0.0	220.0	5	1.1	0.9				
	2558	1	159.27	38.31	0.0	2.18	0	1.0	0.0	220.0	5	1.1	0.9				
	2563	1	52.86	13.0	0.0	6.04	0	1.0	0.0	220.0	5	1.1	0.9				
	2575	1	62.970000000000006	17.4	0.0	0.3	0	1.0	0.0	220.0	5	1.1	0.9				
	2591	1	253.77	84.6	0.0	20.71	0	1.0	0.0	220.0	5	1.1	0.9				
	2597	1	14.719999999999999	5.4	0.0	0.72	0	1.0	0.0	220.0	5	1.1	0.9				
	2598	1	25.629999999999995	12.7	0.0	8.42	0	1.0	0.0	220.0	5	1.1	0.9				
	2600	2	0.0	0.0	0.0	0.0	0	1.0	0.0	220.0	5	1.1	0.9				
	2627	2	0.0	0.0	0.0	0.0	0	1.0	0.0	380.0	5	1.1	0.9				
	2629	1	203.10000000000002	65.2	0.0	0.64	0	1.0	0.0	220.0	5	1.1	0.9				
	2641	1	0.0	0.0	0.0	1.72	0	1.0	0.0	220.0	5	1.1	0.9				
	2644	1	0.0	0.0	0.0	0.19	0	1.0	0.0	220.0	5	1.1	0.9				
	2653	2	0.0	0.0	0.0	0.0	0	1.0	0.0	220.0	5	1.1	0.9				
	2654	1	207.09999999999997	50.4	0.0	4.93	0	1.0	0.0	220.0	5	1.1	0.9				
	2656	1	-0.72	0.0	0.0	69.582294	0	1.0	0.0	380.0	5	1.1	0.9				
	2676	1	123.24	23.65	0.0	6.4399999999999995	0	1.0	0.0	220.0	5	1.1	0.9				
	2689	1	0.0	0.0	0.0	0.45000000000000007	0	1.0	0.0	220.0	5	1.1	0.9				
	2695	1	16.22	8.9	0.0	2.2	0	1.0	0.0	220.0	5	1.1	0.9				
	2702	1	151.7	27.6	0.0	6.49	0	1.0	0.0	220.0	5	1.1	0.9				
	2719	2	0.0	0.0	0.0	0.0	0	1.0	0.0	220.0	5	1.1	0.9				
	2721	1	0.0	0.0	0.0	10.040547	0	1.0	0.0	380.0	5	1.1	0.9				
	2732	1	85.59	20.72	0.0	142.79	0	1.0	0.0	380.0	5	1.1	0.9				
	2749	1	55.559999999999995	26.5	0.0	1.09	0	1.0	0.0	220.0	5	1.1	0.9				
	2751	1	34.54	8.6	0.0	5.05	0	1.0	0.0	220.0	5	1.1	0.9				
	2754	1	0.0	0.0	0.0	3.72	0	1.0	0.0	220.0	5	1.1	0.9				
	2770	1	85.39	14.3	0.0	0.35	0	1.0	0.0	220.0	5	1.1	0.9				
	2782	1	-28.13	-0.8100000000000002	0.0	0.1	0	1.0	0.0	220.0	5	1.1	0.9				
	2786	2	0.0	0.0	0.0	0.0	0	1.0	0.0	380.0	5	1.3	0.7				
	2794	1	0.0	0.0	0.0	0.39	0	1.0	0.0	220.0	5	1.1	0.9				
	2795	1	0.0	0.0	0.0	1.94	0	1.0	0.0	220.0	5	1.1	0.9				
	2797	2	0.0	0.0	0.0	0.0	0	1.0	0.0	220.0	5	1.1	0.9				
	2799	2	0.0	0.0	0.0	0.0	0	1.0	0.0	220.0	5	1.1	0.9				
	2801	1	0.0	0.0	0.0	12.17	0	1.0	0.0	220.0	5	1.1	0.9				
	2806	1	0.0	0.0	0.0	0.39	0	1.0	0.0	220.0	5	1.1	0.9				
	2815	1	25.33	14.2	0.0	4.05	0	1.0	0.0	220.0	5	1.1	0.9				
	2816	2	0.0	0.0	0.0	0.0	0	1.0	0.0	380.0	5	1.1	0.9				
	2841	2	0.0	0.0	0.0	0.0	0	1.0	0.0	220.0	5	1.1	0.9				
	2842	2	0.0	0.0	0.0	0.0	0	1.0	0.0	220.0	5	1.1	0.9				
	2847	1	40.14	8.8	0.0	0.8199999999999998	0	1.0	0.0	220.0	5	1.1	0.9				
	2848	1	453.23	139.16	0.0	25.583217999999995	0	1.0	0.0	380.0	5	1.1	0.9				
	2850	1	0.0	0.0	0.0	4.76	0	1.0	0.0	220.0	5	1.1	0.9				
	2854	1	-12.33	-2.65	0.0	69.323028	0	1.0	0.0	380.0	5	1.1	0.9				
	2863	1	37.73	13.84	0.0	0.09	0	1.0	0.0	220.0	5	1.1	0.9				
	2866	1	0.0	0.0	0.0	4.21	0	1.0	0.0	220.0	5	1.1	0.9				
	2872	2	0.0	0.0	0.0	0.0	0	1.0	0.0	220.0	5	1.1	0.9				
	2877	1	29.93	0.0	0.0	0.45999999999999996	0	1.0	0.0	220.0	5	1.1	0.9				
	2878	2	0.0	0.0	0.0	0.0	0	1.0	0.0	220.0	5	1.1	0.9				
	2886	2	0.0	0.0	0.0	0.0	0	1.0	0.0	220.0	5	1.1	0.9				
	2888	1	0.0	0.0	0.0	0.22	0	1.0	0.0	220.0	5	1.1	0.9				
	2889	1	0.0	0.0	0.0	3.2	0	1.0	0.0	220.0	5	1.1	0.9				
	2898	1	56.76	13.4	0.0	1.18	0	1.0	0.0	220.0	5	1.1	0.9				
	2902	2	0.0	0.0	0.0	0.0	0	1.0	0.0	220.0	5	1.1	0.9				
	2910	1	0.0	0.0	0.0	2.87	0	1.0	0.0	220.0	5	1.1	0.9				
	2918	1	0.0	0.0	0.0	53.25003	0	1.0	0.0	380.0	5	1.1	0.9				
	2919	1	0.0	0.0	0.0	32.049116	0	1.0	0.0	380.0	5	1.1	0.9				
	2924	1	19.92	7.400000000000001	0.0	17.28	0	1.0	0.0	220.0	5	1.1	0.9				
	2928	1	0.0	0.0	0.0	92.38	0	1.0	0.0	220.0	5	1.1	0.9				
	2930	2	0.0	0.0	0.0	0.0	0	1.0	0.0	220.0	5	1.1	0.9				
	2931	1	230.7	19.3	0.0	4.56	0	1.0	0.0	220.0	5	1.1	0.9				
	2934	2	0.0	0.0	0.0	0.0	0	1.0	0.0	220.0	5	1.1	0.9				
	2938	1	0.0	0.0	0.0	137.29	0	1.0	0.0	380.0	5	1.1	0.9				
	2940	1	103.0	28.7	0.0	2.88	0	1.0	0.0	220.0	5	1.1	0.9				
	2949	1	0.0	0.0	0.0	11.03	0	1.0	0.0	220.0	5	1.1	0.9				
	2961	1	159.9	53.2	0.0	7.99	0	1.0	0.0	220.0	5	1.1	0.9				
	2967	1	0.0	0.0	0.0	0.19	0	1.0	0.0	220.0	5	1.1	0.9				
	2968	1	112.51	16.51	0.0	1.63	0	1.0	0.0	220.0	5	1.1	0.9				
	2972	1	97.82	20.59	0.0	6.67	0	1.0	0.0	220.0	5	1.1	0.9				
	2980	1	0.0	0.0	0.0	0.42	0	1.0	0.0	380.0	5	1.1	0.9				
	2981	1	0.0	0.0	0.0	1.68	0	1.0	0.0	220.0	5	1.1	0.9				
	2985	2	0.0	0.0	0.0	0.0	0	1.0	0.0	220.0	5	1.1	0.9				
	2995	1	0.0	0.0	0.0	3.9	0	1.0	0.0	220.0	5	1.1	0.9				
	3013	1	2.2	1.1	0.0	0.67	0	1.0	0.0	220.0	5	1.1	0.9				
	3018	2	0.0	0.0	0.0	0.0	0	1.0	0.0	220.0	5	1.1	0.9				
	3019	1	0.0	0.0	0.0	1.37	0	1.0	0.0	220.0	5	1.1	0.9				
	3021	1	74.38	8.8	0.0	6.1	0	1.0	0.0	220.0	5	1.1	0.9				
	3022	1	149.0	19.8	0.0	23.89	0	1.0	0.0	380.0	5	1.1	0.9				
	3028	2	0.0	0.0	0.0	0.0	0	1.0	0.0	380.0	5	1.1	0.9				
	3036	1	116.93	33.6	0.0	3.35	0	1.0	0.0	220.0	5	1.1	0.9				
	3037	1	221.0	146.8	0.0	8.35	0	1.0	0.0	220.0	5	1.1	0.9				
	3044	1	29.330000000000002	5.6	0.0	6.559999999999999	0	1.0	0.0	220.0	5	1.1	0.9				
	3051	1	0.0	0.0	0.0	0.0	0	1.0	0.0	220.0	5	1.1	0.9				
	3069	1	89.6	22.7	0.0	4.06	0	1.0	0.0	220.0	5	1.1	0.9				
	3070	1	0.0	0.0	0.0	4.27	0	1.0	0.0	220.0	5	1.1	0.9				
	3071	1	0.0	0.0	0.0	2.83	0	1.0	0.0	220.0	5	1.1	0.9				
	3072	1	92.9	27.699999999999996	0.0	5.22	0	1.0	0.0	220.0	5	1.1	0.9				
	3075	1	30.329999999999995	10.5	0.0	0.33	0	1.0	0.0	220.0	5	1.1	0.9				
	3082	1	0.0	0.0	0.0	75.076038	0	1.0	0.0	380.0	5	1.1	0.9				
	3083	1	567.97	130.73	0.0	1.09	0	1.0	0.0	220.0	5	1.1	0.9				
	3085	1	64.67	24.5	0.0	1.46	0	1.0	0.0	220.0	5	1.1	0.9				
	3112	1	0.0	0.0	0.0	0.0	0	1.0	0.0	220.0	5	1.1	0.9				
	3114	2	0.0	0.0	0.0	0.0	0	1.0	0.0	220.0	5	1.1	0.9				
	3121	1	242.15999999999997	73.64	0.0	12.79	0	1.0	0.0	220.0	5	1.1	0.9				
	3126	1	104.78	20.92	0.0	6.17	0	1.0	0.0	220.0	5	1.1	0.9				
	3133	2	0.0	0.0	0.0	0.0	0	1.0	0.0	220.0	5	1.1	0.9				
	3134	2	0.0	0.0	0.0	0.0	0	1.0	0.0	220.0	5	1.1	0.9				
	3137	1	0.0	0.0	0.0	0.03	0	1.0	0.0	220.0	5	1.1	0.9				
	3145	1	860.95	-182.67	0.0	18.309116	0	1.0	0.0	380.0	5	1.1	0.9				
	3166	1	184.91	32.8	0.0	8.35	0	1.0	0.0	220.0	5	1.1	0.9				
	3183	2	0.0	0.0	0.0	0.0	0	1.0	0.0	220.0	5	1.1	0.9				
	3184	1	14.12	7.7	0.0	1.42	0	1.0	0.0	220.0	5	1.1	0.9				
	3187	1	107.0	34.7	0.0	1.54	0	1.0	0.0	220.0	5	1.1	0.9				
	3191	1	127.8	15.2	0.0	9.34	0	1.0	0.0	220.0	5	1.1	0.9				
	3200	1	86.2	19.9	0.0	5.43	0	1.0	0.0	220.0	5	1.1	0.9				
	3204	1	8.51	3.2	0.0	0.96	0	1.0	0.0	220.0	5	1.1	0.9				
	3205	2	0.0	0.0	0.0	0.0	0	1.0	0.0	380.0	5	1.1	0.9				
	3218	2	0.0	0.0	0.0	0.0	0	1.0	0.0	220.0	5	1.1	0.9				
	3221	1	76.38	24.8	0.0	3.2400000000000007	0	1.0	0.0	220.0	5	1.1	0.9				
	3231	1	251.29999999999998	42.6	0.0	5.47	0	1.0	0.0	220.0	5	1.1	0.9				
	3239	1	-5.06	-1.8399999999999999	0.0	187.327025	0	1.0	0.0	380.0	5	1.1	0.9				
	3240	2	0.0	0.0	0.0	0.0	0	1.0	0.0	220.0	5	1.1	0.9				
	3241	1	132.0	27.0	0.0	4.66	0	1.0	0.0	220.0	5	1.1	0.9				
	3243	1	0.0	0.0	0.0	1.18	0	1.0	0.0	380.0	5	1.1	0.9				
	3246	1	20.9	-171.5	0.0	0.21	0	1.0	0.0	220.0	5	1.1	0.9				
	3248	1	84.19	17.3	0.0	6.2	0	1.0	0.0	220.0	5	1.1	0.9				
	3255	1	0.0	0.0	0.0	1.44	0	1.0	0.0	220.0	5	1.1	0.9				
	3276	1	0.0	0.0	0.0	0.13	0	1.0	0.0	220.0	5	1.1	0.9				
	3293	1	33.14	11.6	0.0	4.51	0	1.0	0.0	220.0	5	1.1	0.9				
	3306	2	0.0	0.0	0.0	0.0	0	1.0	0.0	220.0	5	1.1	0.9				
	3324	2	0.0	0.0	0.0	0.0	0	1.0	0.0	220.0	5	1.1	0.9				
	3325	1	0.0	0.0	0.0	0.91	0	1.0	0.0	220.0	5	1.1	0.9				
	3327	1	0.0	0.0	0.0	2.27	0	1.0	0.0	220.0	5	1.1	0.9				
	3331	1	0.0	0.0	0.0	4.56	0	1.0	0.0	220.0	5	1.1	0.9				
	3344	1	83.29	24.1	0.0	1.23	0	1.0	0.0	220.0	5	1.1	0.9				
	3346	2	0.0	0.0	0.0	0.0	0	1.0	0.0	380.0	5	1.1	0.9				