%% MATPOWER Case Format : Version 2
function mpc = pglib_opf_case39_epri
mpc.version = '2';

%%-----  Power Flow Data  -----%%
%% system MVA base
mpc.baseMVA = 100.0;
%% bus data
%    bus_i    type    Pd    Qd    Gs    Bs    area    Vm    Va    baseKV    zone    Vmax    Vmin
mpc.bus = [
	1	1	97.6	44.2	0.0	0.0	2	1.0	0.0	345.0	1	1.06	0.94				
	2	1	0.0	0.0	0.0	0.0	2	1.0	0.0	345.0	1	1.06	0.94				
	3	1	322.0	2.4	0.0	0.0	2	1.0	0.0	345.0	1	1.06	0.94				
	4	1	500.0	184.0	0.0	0.0	1	1.0	0.0	345.0	1	1.06	0.94				
	5	1	0.0	0.0	0.0	0.0	1	1.0	0.0	345.0	1	1.06	0.94				
	6	1	0.0	0.0	0.0	0.0	1	1.0	0.0	345.0	1	1.06	0.94				
	7	1	233.8	84.0	0.0	0.0	1	1.0	0.0	345.0	1	1.06	0.94				
	8	1	522.0	176.6	0.0	0.0	1	1.0	0.0	345.0	1	1.06	0.94				
	9	1	6.5	-66.6	0.0	0.0	1	1.0	0.0	345.0	1	1.06	0.94				
	10	1	0.0	0.0	0.0	0.0	1	1.0	0.0	345.0	1	1.06	0.94				
	11	1	0.0	0.0	0.0	0.0	1	1.0	0.0	345.0	1	1.06	0.94				
	12	1	8.53	88.0	0.0	0.0	1	1.0	0.0	345.0	1	1.06	0.94				
	13	1	0.0	0.0	0.0	0.0	1	1.0	0.0	345.0	1	1.06	0.94				
	14	1	0.0	0.0	0.0	0.0	1	1.0	0.0	345.0	1	1.06	0.94				
	15	1	320.0	153.0	0.0	0.0	3	1.0	0.0	345.0	1	1.06	0.94				
	16	1	329.0	32.3	0.0	0.0	3	1.0	0.0	345.0	1	1.06	0.94				
	17	1	0.0	0.0	0.0	0.0	2	1.0	0.0	345.0	1	1.06	0.94				
	18	1	158.0	30.0	0.0	0.0	2	1.0	0.0	345.0	1	1.06	0.94				
	19	1	0.0	0.0	0.0	0.0	3	1.0	0.0	345.0	1	1.06	0.94				
	20	1	680.0	103.0	0.0	0.0	3	1.0	0.0	345.0	1	1.06	0.94				
	21	1	274.0	114.99999999999999	0.0	0.0	3	1.0	0.0	345.0	1	1.06	0.94				
	22	1	0.0	0.0	0.0	0.0	3	1.0	0.0	345.0	1	1.06	0.94				
	23	1	247.5	84.6	0.0	0.0	3	1.0	0.0	345.0	1	1.06	0.94				
	24	1	308.6	-92.2	0.0	0.0	3	1.0	0.0	345.0	1	1.06	0.94				
	25	1	224.00000000000003	47.2	0.0	0.0	2	1.0	0.0	345.0	1	1.06	0.94				
	26	1	139.0	17.0	0.0	0.0	2	1.0	0.0	345.0	1	1.06	0.94				
	27	1	281.0	75.5	0.0	0.0	2	1.0	0.0	345.0	1	1.06	0.94				
	28	1	206.0	27.6	0.0	0.0	3	1.0	0.0	345.0	1	1.06	0.94				
	29	1	283.5	26.899999999999995	0.0	0.0	3	1.0	0.0	345.0	1	1.06	0.94				
	30	2	0.0	0.0	0.0	0.0	2	1.0	0.0	345.0	1	1.06	0.94				
	31	3	9.2	4.6	0.0	0.0	1	1.0	0.0	345.0	1	1.06	0.94				
	32	2	0.0	0.0	0.0	0.0	1	1.0	0.0	345.0	1	1.06	0.94				
	33	2	0.0	0.0	0.0	0.0	3	1.0	0.0	345.0	1	1.06	0.94				
	34	2	0.0	0.0	0.0	0.0	3	1.0	0.0	345.0	1	1.06	0.94				
	35	2	0.0	0.0	0.0	0.0	3	1.0	0.0	345.0	1	1.06	0.94				
	36	2	0.0	0.0	0.0	0.0	3	1.0	0.0	345.0	1	1.06	0.94				
	37	2	0.0	0.0	0.0	0.0	2	1.0	0.0	345.0	1	1.06	0.94				
	38	2	0.0	0.0	0.0	0.0	3	1.0	0.0	345.0	1	1.06	0.94				
	39	2	1104.0	250.0	0.0	0.0	1	1.0	0.0	345.0	1	1.06	0.94				
];

%% generator data
%    bus    Pg    Qg    Qmax    Qmin    Vg    mBase    status    Pmax    Pmin    Pc1    Pc2    Qc1min    Qc1max    Qc2min    Qc2max    ramp_agc    ramp_10    ramp_30    ramp_q    apf
mpc.gen = [
	30	520.0	270.0	400.0	140.0	1.0	100.0	1	1040.0	0.0															
	31	323.0	100.0	300.0	-100.0	1.0	100.0	1	646.0	0.0															
	32	362.5	225.0	300.0	150.0	1.0	100.0	1	725.0	0.0															
	33	326.0	125.0	250.0	0.0	1.0	100.0	1	652.0	0.0															
	34	254.0	83.5	167.0	0.0	1.0	100.0	1	508.0	0.0															
	35	343.5	100.0	300.0	-100.0	1.0	100.0	1	687.0	0.0															
	36	290.0	120.0	240.0	0.0	1.0	100.0	1	580.0	0.0															
	37	282.0	125.0	250.0	0.0	1.0	100.0	1	564.0	0.0															
	38	432.5	75.0	300.0	-150.0	1.0	100.0	1	865.0	0.0															
	39	550.0	100.0	300.0	-100.0	1.0	100.0	1	1100.0	0.0															
];

%% branch data
%    f_bus    t_bus    r    x    b    rateA    rateB    rateC    ratio    angle    status    angmin    angmax
mpc.branch = [
	1	2	0.003547779477406792	0.041661067484863624	0.6959867218852321	600.0	600.0	600.0	0	0	1	-29.999999999999996	29.999999999999996								
	1	39	0.0010182424188156193	0.025456060362725057	0.6711344064342244	1000.0	1000.0	1000.0	0	0	1	-29.999999999999996	29.999999999999996								
	2	3	0.0013119891347048854	0.015239258408507636	0.22053368991530126	500.0	500.0	500.0	0	0	1	-29.999999999999996	29.999999999999996								
	2	25	0.007005822460282288	0.008607153308345775	0.1313397996217957	500.0	500.0	500.0	0	0	1	-29.999999999999996	29.999999999999996								
	2	30	4.481892410708032e-5	0.01811295945480909	0.03926252037265368	900.0	900.0	2500.0	1.025	0.0	1	-29.999999999999996	29.999999999999996								
	3	4	0.0012993557584537413	0.02128944432686535	0.2272398107464275	500.0	500.0	500.0	0	0	1	-29.999999999999996	29.999999999999996								
	3	18	0.0010961219023751946	0.01325311027090738	0.13138470860676513	500.0	500.0	500.0	0	0	1	-29.999999999999996	29.999999999999996								
	4	5	0.000807610814860328	0.012921773032254273	0.09517401425525168	600.0	600.0	600.0	0	0	1	-29.999999999999996	29.999999999999996								
	4	14	0.0008015883625879266	0.012925612341319621	0.19108423983898784	500.0	500.0	500.0	0	0	1	-29.999999999999996	29.999999999999996								
	5	6	0.00019970023523820544	0.002596103058071174	0.03695003410898376	1200.0	1200.0	1200.0	0	0	1	-29.999999999999996	29.999999999999996								
	5	8	0.0008024511979482048	0.01123431676877232	0.027390776799649245	900.0	900.0	900.0	0	0	1	-29.999999999999996	29.999999999999996								
	6	7	0.0006050813378092467	0.009277913844775687	0.002859449252581581	900.0	900.0	900.0	0	0	1	-29.999999999999996	29.999999999999996								
	6	11	0.0007002094750174938	0.008202453849515425	0.11788055127743258	480.0	480.0	480.0	0	0	1	-29.999999999999996	29.999999999999996								
	6	31	8.521019476548039e-5	0.02497487264503024	0.037543921052456464	1800.0	1800.0	1800.0	1.07	0.0	1	-29.999999999999996	29.999999999999996								
	7	8	0.00039947115825256913	0.004593918319786944	0.0028679964562983635	900.0	900.0	900.0	0	0	1	-29.999999999999996	29.999999999999996								
	8	9	0.002399978578397287	0.03787792263166822	0.4244492211722008	900.0	900.0	900.0	0	0	1	-29.999999999999996	29.999999999999996								
	9	39	0.001003776014530115	0.025094400262475444	1.150830421094823	900.0	900.0	900.0	0	0	1	-29.999999999999996	29.999999999999996								
	10	11	0.00040003976804036734	0.004300427506353077	0.0028610337608458583	600.0	600.0	600.0	0	0	1	-29.999999999999996	29.999999999999996								
	10	13	0.00040031025074025475	0.0043033351953742725	0.047589123725629574	600.0	600.0	600.0	0	0	1	-29.999999999999996	29.999999999999996								
	10	32	5.46543340877728e-5	0.020001875205823	0.0028611004182884214	900.0	900.0	2500.0	1.07	0.0	1	-29.999999999999996	29.999999999999996								
	12	11	0.0016054399127514035	0.043647896924580855	0.002860039195944108	500.0	500.0	500.0	1.006	0.0	1	-29.999999999999996	29.999999999999996								
	12	13	0.0016849610466139826	0.04580987763612178	0.0028608784971600096	500.0	500.0	500.0	1.006	0.0	1	-29.999999999999996	29.999999999999996								
	13	14	0.0008950954944982195	0.010044960548142641	0.13897257579005867	600.0	600.0	600.0	0	0	1	-29.999999999999996	29.999999999999996								
	14	15	0.0017879264259995891	0.02155444634319201	0.37686557287543077	600.0	600.0	600.0	0	0	1	-29.999999999999996	29.999999999999996								
	15	16	0.0009012797542195454	0.00941336632108261	0.25368241166190075	600.0	600.0	600.0	0	0	1	-29.999999999999996	29.999999999999996								
	16	17	0.0006990273073453752	0.008887632906571023	0.15887585923368963	600.0	600.0	600.0	0	0	1	-29.999999999999996	29.999999999999996								
	16	19	0.0015754477883450659	0.01920076990989347	0.233806945937165	600.0	600.0	2500.0	0	0	1	-29.999999999999996	29.999999999999996								
	16	21	0.0007945371945993521	0.013407815152696139	0.33347519700220785	600.0	600.0	600.0	0	0	1	-29.999999999999996	29.999999999999996								
	16	24	0.00029984272453036266	0.005896906915007827	0.002923495172909883	600.0	600.0	600.0	0	0	1	-29.999999999999996	29.999999999999996								
	17	18	0.0006984086020251863	0.008181357908731843	0.20540345852401878	600.0	600.0	600.0	0	0	1	-29.999999999999996	29.999999999999996								
	17	27	0.0012969015422732628	0.017258766668932335	0.3176655544678732	600.0	600.0	600.0	0	0	1	-29.999999999999996	29.999999999999996								
	19	20	0.0007004415814797228	0.013808705454178276	0.05548297957863535	900.0	900.0	2500.0	1.06	0.0	1	-29.999999999999996	29.999999999999996								
	19	33	0.0006997156998453184	0.014194232757827151	0.03665433393305294	900.0	900.0	2500.0	1.07	0.0	1	-29.999999999999996	29.999999999999996								
	20	34	0.0008919818411132779	0.01783963680092429	0.04516836968497607	900.0	900.0	2500.0	1.009	0.0	1	-29.999999999999996	29.999999999999996								
	21	22	0.0007989001764569166	0.013980753081696483	0.3523172866292059	900.0	900.0	900.0	0	0	1	-29.999999999999996	29.999999999999996								
	22	23	0.0006031717798902808	0.009650748476014145	0.20124497798527263	600.0	600.0	600.0	0	0	1	-29.999999999999996	29.999999999999996								
	22	35	2.793119542768148e-5	0.014298943963647491	0.0028601604779601654	900.0	900.0	2500.0	1.025	0.0	1	-29.999999999999996	29.999999999999996								
	23	24	0.0022509284452512206	0.03581022516832219	0.23597543747029884	600.0	600.0	600.0	0	0	1	-29.999999999999996	29.999999999999996								
	23	36	0.0005142151751377262	0.02797330481967705	0.005391751664363853	900.0	900.0	2500.0	0	0	1	-29.999999999999996	29.999999999999996								
	25	26	0.0031546372213298542	0.03184211942142413	0.4105031902717192	600.0	600.0	600.0	0	0	1	-29.999999999999996	29.999999999999996								
	25	37	0.0005839805082802426	0.022580579475182293	0.07248055692775413	900.0	900.0	2500.0	1.025	0.0	1	-29.999999999999996	29.999999999999996								
	26	27	0.0013951686820906704	0.01464927115900978	0.12773513889202276	600.0	600.0	600.0	0	0	1	-29.999999999999996	29.999999999999996								
	26	28	0.004222389599604196	0.04654448057899633	0.7776890361631476	600.0	600.0	600.0	0	0	1	-29.999999999999996	29.999999999999996								
	26	29	0.005836132767184303	0.06399268353523155	1.038808354795544	600.0	600.0	600.0	0	0	1	-29.999999999999996	29.999999999999996								
	28	29	0.0014051473153655163	0.015155517469112357	0.26178349129153966	600.0	600.0	600.0	0	0	1	-29.999999999999996	29.999999999999996								
	29	38	0.0007758347557769936	0.01512877772621009	0.0028595254500631885	1200.0	1200.0	2500.0	1.025	0.0	1	-29.999999999999996	29.999999999999996								
];

%%-----  OPF Data  -----%%
%% cost data
%    1    startup    shutdown    n    x1    y1    ...    xn    yn
%    2    startup    shutdown    n    c(n-1)    ...    c0
mpc.gencost = [
	2	0.0	0.0	2	6.724778000000001	0.0
	2	0.0	0.0	2	14.707625	0.0
	2	0.0	0.0	2	24.804734	0.0
	2	0.0	0.0	2	34.844643	0.0
	2	0.0	0.0	2	24.652994	0.0
	2	0.0	0.0	2	32.306483	0.0
	2	0.0	0.0	2	18.157477	0.0
	2	0.0	0.0	2	31.550181	0.0
	2	0.0	0.0	2	22.503168000000002	0.0
	2	0.0	0.0	2	27.434444	0.0
];

