%% MATPOWER Case Format : Version 2
function mpc = pglib_opf_case240_pserc
mpc.version = '2';

%%-----  Power Flow Data  -----%%
%% system MVA base
mpc.baseMVA = 100.0;
%% bus data
%    bus_i    type    Pd    Qd    Gs    Bs    area    Vm    Va    baseKV    zone    Vmax    Vmin
mpc.bus = [
	1001	1	0.0	0.0	0.0	0.0	10	1.0	0.0	500.0	1	1.1	0.9				
	1002	1	226.8419	-37.472	0.0	0.0	10	1.0	0.0	345.0	1	1.1	0.9				
	1003	1	2153.3224	366.856	0.0	0.0	10	1.0	0.0	230.0	1	1.1	0.9				
	1004	1	1037.9499	5.521	0.0	0.0	10	1.0	0.0	345.0	1	1.1	0.9				
	1032	2	0.0	0.0	0.0	0.0	10	1.0	0.0	20.0	1	1.1	0.9				
	1034	2	0.0	0.0	0.0	0.0	10	1.0	0.0	20.0	1	1.1	0.9				
	1101	1	4527.3661	-137.044	0.0	0.0	10	1.0	0.0	500.0	1	1.1	0.9				
	1102	1	176.4436	23.004	0.0	0.0	10	1.0	0.0	345.0	1	1.1	0.9				
	1131	2	0.0	0.0	0.0	0.0	10	1.0	0.0	20.0	1	1.1	0.9				
	1201	1	166.9882	-2.012	0.0	0.0	10	1.0	0.0	500.0	1	1.1	0.9				
	1202	1	875.61	287.131	0.0	0.0	10	1.0	0.0	500.0	1	1.1	0.9				
	1232	2	0.0	0.0	0.0	0.0	10	1.0	0.0	20.0	1	1.1	0.9				
	1301	1	2704.7793	352.826	0.0	0.0	10	1.0	0.0	500.0	1	1.1	0.9				
	1302	1	17.5556	2.304	0.0	0.0	10	1.0	0.0	500.0	1	1.1	0.9				
	1303	1	6235.136	813.349	0.0	0.0	10	1.0	0.0	345.0	1	1.1	0.9				
	1331	2	0.0	0.0	0.0	0.0	10	1.0	0.0	20.0	1	1.1	0.9				
	1333	2	0.0	0.0	0.0	0.0	10	1.0	0.0	20.0	1	1.1	0.9				
	1401	1	6535.5365	1524.594	0.0	0.0	10	1.0	0.0	500.0	1	1.1	0.9				
	1402	1	5366.6305	-600.162	0.0	0.0	10	1.0	0.0	500.0	1	1.1	0.9				
	1403	1	0.0	0.0	0.0	0.0	10	1.0	0.0	230.0	1	1.1	0.9				
	1431	2	0.0	0.0	0.0	0.0	10	1.0	0.0	20.0	1	1.1	0.9				
	2000	1	2207.188	287.916	0.0	0.0	20	1.0	0.0	230.0	1	1.1	0.9				
	2030	2	0.0	0.0	0.0	0.0	20	1.0	0.0	20.0	1	1.1	0.9				
	2100	1	281.1513	54.83	0.0	0.0	21	1.0	0.0	230.0	1	1.1	0.9				
	2130	2	0.0	0.0	0.0	0.0	21	1.0	0.0	20.0	1	1.1	0.9				
	2201	1	0.0	0.0	0.0	0.0	22	1.0	0.0	500.0	1	1.1	0.9				
	2202	1	1545.949	268.565	0.0	0.0	22	1.0	0.0	230.0	1	1.1	0.9				
	2203	1	1708.5525	278.273	0.0	0.0	22	1.0	0.0	230.0	1	1.1	0.9				
	2233	2	0.0	0.0	0.0	0.0	22	1.0	0.0	20.0	1	1.1	0.9				
	2301	1	0.0	0.0	0.0	0.0	22	1.0	0.0	500.0	1	1.1	0.9				
	2302	1	0.0	0.0	0.0	0.0	22	1.0	0.0	230.0	1	1.1	0.9				
	2332	2	0.0	0.0	0.0	0.0	22	1.0	0.0	20.0	1	1.1	0.9				
	2400	1	843.2926	76.663	0.0	0.0	24	1.0	0.0	500.0	1	1.1	0.9				
	2401	1	882.3636	105.21400000000001	0.0	0.0	24	1.0	0.0	500.0	1	1.1	0.9				
	2402	1	1080.0201	81.979	0.0	0.0	24	1.0	0.0	500.0	1	1.1	0.9				
	2403	1	1050.004	38.543	0.0	0.0	24	1.0	0.0	500.0	1	1.1	0.9				
	2404	1	0.0	0.0	0.0	0.0	24	1.0	0.0	500.0	1	1.1	0.9				
	2405	1	824.6826000000001	22.901	0.0	0.0	24	1.0	0.0	230.0	1	1.1	0.9				
	2406	1	737.4036	-40.751	0.0	0.0	24	1.0	0.0	230.0	1	1.1	0.9				
	2407	1	1732.771	-36.535	0.0	0.0	24	1.0	0.0	230.0	1	1.1	0.9				
	2408	1	1743.2767999999999	-72.623	0.0	0.0	24	1.0	0.0	230.0	1	1.1	0.9				
	2409	1	1601.7777000000003	-86.698	0.0	0.0	24	1.0	0.0	230.0	1	1.1	0.9				
	2410	1	1576.7872	58.184000000000005	0.0	0.0	24	1.0	0.0	230.0	1	1.1	0.9				
	2411	1	1087.6239	75.955	0.0	0.0	24	1.0	0.0	230.0	1	1.1	0.9				
	2438	2	0.0	0.0	0.0	0.0	24	1.0	0.0	20.0	1	1.1	0.9				
	2501	1	0.0	0.0	0.0	0.0	25	1.0	0.0	500.0	1	1.1	0.9				
	2502	1	2369.1531	-91.905	0.0	0.0	25	1.0	0.0	230.0	1	1.1	0.9				
	2503	1	1845.9256	201.99100000000004	0.0	0.0	25	1.0	0.0	230.0	1	1.1	0.9				
	2533	2	0.0	0.0	0.0	0.0	25	1.0	0.0	20.0	1	1.1	0.9				
	2600	1	-1863.9044	0.0	0.0	0.0	90	1.0	0.0	500.0	1	1.1	0.9				
	2601	1	0.0	0.0	0.0	0.0	26	1.0	0.0	500.0	1	1.1	0.9				
	2602	1	99.2784	12.955	0.0	0.0	26	1.0	0.0	500.0	1	1.1	0.9				
	2603	1	0.0	0.0	0.0	0.0	26	1.0	0.0	500.0	1	1.1	0.9				
	2604	1	2050.7816	0.0	0.0	0.0	90	1.0	0.0	345.0	1	1.1	0.9				
	2605	1	0.0	0.0	0.0	0.0	26	1.0	0.0	287.0	1	1.1	0.9				
	2606	1	0.0	0.0	0.0	0.0	26	1.0	0.0	287.0	1	1.1	0.9				
	2607	1	0.0	0.0	0.0	0.0	26	1.0	0.0	287.0	1	1.1	0.9				
	2608	1	99.2784	12.955	0.0	0.0	26	1.0	0.0	230.0	1	1.1	0.9				
	2609	1	134.0261	26.805	0.0	0.0	26	1.0	0.0	230.0	1	1.1	0.9				
	2610	1	99.2784	12.955	0.0	0.0	26	1.0	0.0	230.0	1	1.1	0.9				
	2611	1	99.2784	12.955	0.0	0.0	26	1.0	0.0	230.0	1	1.1	0.9				
	2612	1	120.12770000000002	24.819	0.0	0.0	26	1.0	0.0	230.0	1	1.1	0.9				
	2613	1	317.693	64.532	0.0	0.0	26	1.0	0.0	230.0	1	1.1	0.9				
	2614	1	137.0047	27.798000000000002	0.0	0.0	26	1.0	0.0	230.0	1	1.1	0.9				
	2615	1	801.9755999999999	131.148	0.0	0.0	26	1.0	0.0	230.0	1	1.1	0.9				
	2616	1	116.1565	23.827	0.0	0.0	26	1.0	0.0	230.0	1	1.1	0.9				
	2617	1	120.12770000000002	24.819	0.0	0.0	26	1.0	0.0	230.0	1	1.1	0.9				
	2618	1	881.2994	-6.155	0.0	0.0	26	1.0	0.0	230.0	1	1.1	0.9				
	2619	1	-2773.8339	0.0	0.0	0.0	90	1.0	0.0	230.0	1	1.1	0.9				
	2620	1	203.7206	17.473	0.0	0.0	26	1.0	0.0	230.0	1	1.1	0.9				
	2621	1	235.48969999999997	-62.745	0.0	0.0	26	1.0	0.0	138.0	1	1.1	0.9				
	2630	2	0.0	0.0	0.0	0.0	26	1.0	0.0	20.0	1	1.1	0.9				
	2631	2	0.0	0.0	0.0	0.0	26	1.0	0.0	20.0	1	1.1	0.9				
	2634	2	0.0	0.0	0.0	0.0	90	1.0	0.0	20.0	1	1.1	0.9				
	2637	2	0.0	0.0	0.0	0.0	26	1.0	0.0	20.0	1	1.1	0.9				
	2638	2	0.0	0.0	0.0	0.0	26	1.0	0.0	20.0	1	1.1	0.9				
	2901	1	0.0	0.0	0.0	0.0	24	1.0	0.0	500.0	1	1.1	0.9				
	2902	1	0.0	0.0	0.0	0.0	24	1.0	0.0	500.0	1	1.1	0.9				
	3101	1	341.3057	52.82800000000001	0.0	0.0	31	1.0	0.0	230.0	1	1.1	0.9				
	3102	1	159.4648	24.929	0.0	0.0	31	1.0	0.0	230.0	1	1.1	0.9				
	3103	1	419.6109	59.777	0.0	0.0	32	1.0	0.0	230.0	1	1.1	0.9				
	3104	1	309.9718	40.133	0.0	0.0	31	1.0	0.0	115.0	1	1.1	0.9				
	3105	1	239.30179999999996	49.091	0.0	0.0	31	1.0	0.0	115.0	1	1.1	0.9				
	3133	2	0.0	0.0	0.0	0.0	32	1.0	0.0	20.0	1	1.1	0.9				
	3135	2	0.0	0.0	0.0	0.0	31	1.0	0.0	20.0	1	1.1	0.9				
	3201	1	462.47689999999994	97.849	0.0	0.0	32	1.0	0.0	230.0	1	1.1	0.9				
	3202	1	586.1795	83.473	0.0	0.0	32	1.0	0.0	230.0	1	1.1	0.9				
	3203	1	657.1046	158.476	0.0	0.0	32	1.0	0.0	230.0	1	1.1	0.9				
	3204	1	668.7879	95.313	0.0	0.0	32	1.0	0.0	230.0	1	1.1	0.9				
	3205	1	546.0609	77.782	0.0	0.0	32	1.0	0.0	230.0	1	1.1	0.9				
	3234	2	0.0	0.0	0.0	0.0	32	1.0	0.0	20.0	1	1.1	0.9				
	3301	1	0.0	0.0	0.0	0.0	32	1.0	0.0	500.0	1	1.1	0.9				
	3302	1	345.3259	85.791	0.0	0.0	32	1.0	0.0	230.0	1	1.1	0.9				
	3303	1	625.4106	150.715	0.0	0.0	32	1.0	0.0	230.0	1	1.1	0.9				
	3304	1	533.4822	122.61599999999999	0.0	0.0	32	1.0	0.0	230.0	1	1.1	0.9				
	3305	1	430.3196	61.224999999999994	0.0	0.0	32	1.0	0.0	230.0	1	1.1	0.9				
	3333	2	0.0	0.0	0.0	0.0	32	1.0	0.0	20.0	1	1.1	0.9				
	3401	1	557.7071	135.909	0.0	0.0	34	1.0	0.0	230.0	1	1.1	0.9				
	3402	1	0.0	0.0	0.0	0.0	34	1.0	0.0	230.0	1	1.1	0.9				
	3403	1	515.9687	73.583	0.0	0.0	34	1.0	0.0	230.0	1	1.1	0.9				
	3404	1	438.461	62.075	0.0	0.0	34	1.0	0.0	230.0	1	1.1	0.9				
	3405	1	448.8976	63.723	0.0	0.0	34	1.0	0.0	230.0	1	1.1	0.9				
	3432	2	0.0	0.0	0.0	0.0	34	1.0	0.0	20.0	1	1.1	0.9				
	3433	2	0.0	0.0	0.0	0.0	34	1.0	0.0	20.0	1	1.1	0.9				
	3501	1	625.0164	89.015	0.0	0.0	35	1.0	0.0	230.0	1	1.1	0.9				
	3531	2	0.0	0.0	0.0	0.0	35	1.0	0.0	20.0	1	1.1	0.9				
	3601	1	104.85639999999998	14.844	0.0	0.0	36	1.0	0.0	115.0	1	1.1	0.9				
	3631	2	0.0	0.0	0.0	0.0	36	1.0	0.0	20.0	1	1.1	0.9				
	3701	1	317.0506	15.847	0.0	0.0	37	1.0	0.0	115.0	1	1.1	0.9				
	3731	2	0.0	0.0	0.0	0.0	37	1.0	0.0	20.0	1	1.1	0.9				
	3801	1	191.2229	47.411	0.0	0.0	38	1.0	0.0	500.0	1	1.1	0.9				
	3802	1	0.0	0.0	0.0	0.0	38	1.0	0.0	500.0	1	1.1	0.9				
	3803	1	0.0	0.0	0.0	0.0	38	1.0	0.0	500.0	1	1.1	0.9				
	3804	1	223.64039999999997	55.318	0.0	0.0	38	1.0	0.0	230.0	1	1.1	0.9				
	3805	1	499.3888	163.106	0.0	0.0	38	1.0	0.0	230.0	1	1.1	0.9				
	3806	1	289.5858	41.366	0.0	0.0	38	1.0	0.0	230.0	1	1.1	0.9				
	3831	2	0.0	0.0	0.0	0.0	38	1.0	0.0	20.0	1	1.1	0.9				
	3835	2	0.0	0.0	0.0	0.0	38	1.0	0.0	20.0	1	1.1	0.9				
	3836	2	0.0	0.0	0.0	0.0	38	1.0	0.0	20.0	1	1.1	0.9				
	3891	1	0.0	0.0	0.0	0.0	38	1.0	0.0	500.0	1	1.1	0.9				
	3892	1	0.0	0.0	0.0	0.0	38	1.0	0.0	500.0	1	1.1	0.9				
	3893	1	0.0	0.0	0.0	0.0	38	1.0	0.0	500.0	1	1.1	0.9				
	3894	1	0.0	0.0	0.0	0.0	38	1.0	0.0	500.0	1	1.1	0.9				
	3895	1	0.0	0.0	0.0	0.0	38	1.0	0.0	500.0	1	1.1	0.9				
	3896	1	0.0	0.0	0.0	0.0	38	1.0	0.0	500.0	1	1.1	0.9				
	3897	1	0.0	0.0	0.0	0.0	38	1.0	0.0	500.0	1	1.1	0.9				
	3901	1	0.0	0.0	0.0	0.0	39	1.0	0.0	500.0	1	1.1	0.9				
	3902	1	152.9913	38.248	0.0	0.0	39	1.0	0.0	500.0	1	1.1	0.9				
	3903	1	213.24780000000004	30.268999999999995	0.0	0.0	39	1.0	0.0	500.0	1	1.1	0.9				
	3904	1	0.0	0.0	0.0	0.0	39	1.0	0.0	500.0	1	1.1	0.9				
	3905	1	0.0	0.0	0.0	0.0	39	1.0	0.0	500.0	1	1.1	0.9				
	3906	1	0.0	0.0	0.0	0.0	39	1.0	0.0	500.0	1	1.1	0.9				
	3907	1	461.35729999999995	63.071	0.0	0.0	39	1.0	0.0	230.0	1	1.1	0.9				
	3908	1	200.2788	24.716	0.0	0.0	39	1.0	0.0	230.0	1	1.1	0.9				
	3909	1	170.957	39.785	0.0	0.0	39	1.0	0.0	230.0	1	1.1	0.9				
	3910	1	241.83919999999998	34.44	0.0	0.0	39	1.0	0.0	230.0	1	1.1	0.9				
	3911	1	233.13450000000003	47.114	0.0	0.0	39	1.0	0.0	230.0	1	1.1	0.9				
	3912	1	174.5029	-0.634	0.0	0.0	39	1.0	0.0	230.0	1	1.1	0.9				
	3913	1	329.5484	43.435	0.0	0.0	39	1.0	0.0	230.0	1	1.1	0.9				
	3914	1	227.7536	52.549	0.0	0.0	39	1.0	0.0	230.0	1	1.1	0.9				
	3915	1	254.45890000000003	53.40200000000001	0.0	0.0	39	1.0	0.0	230.0	1	1.1	0.9				
	3916	1	155.0024	0.0	0.0	0.0	39	1.0	0.0	230.0	1	1.1	0.9				
	3917	1	238.1882	43.995	0.0	0.0	39	1.0	0.0	230.0	1	1.1	0.9				
	3918	1	319.2809	75.464	0.0	0.0	39	1.0	0.0	230.0	1	1.1	0.9				
	3919	1	184.5093	24.094	0.0	0.0	39	1.0	0.0	230.0	1	1.1	0.9				
	3920	1	172.5018	23.677	0.0	0.0	39	1.0	0.0	230.0	1	1.1	0.9				
	3921	1	150.8902	34.821	0.0	0.0	39	1.0	0.0	230.0	1	1.1	0.9				
	3922	1	253.4454	31.919000000000004	0.0	0.0	39	1.0	0.0	230.0	1	1.1	0.9				
	3923	1	399.0618	67.021	0.0	0.0	39	1.0	0.0	230.0	1	1.1	0.9				
	3924	1	332.4879	47.165	0.0	0.0	39	1.0	0.0	230.0	1	1.1	0.9				
	3925	1	0.0	0.0	0.0	0.0	39	1.0	0.0	115.0	1	1.1	0.9				
	3926	1	267.3529	16.668	0.0	0.0	39	1.0	0.0	115.0	1	1.1	0.9				
	3931	2	0.0	0.0	0.0	0.0	39	1.0	0.0	20.0	1	1.1	0.9				
	3932	2	0.0	0.0	0.0	0.0	39	1.0	0.0	20.0	1	1.1	0.9				
	3933	3	0.0	0.0	0.0	0.0	39	1.0	0.0	20.0	1	1.1	0.9				
	4001	1	0.0	0.0	0.0	0.0	40	1.0	0.0	500.0	1	1.1	0.9				
	4002	1	168.6841	21.998	0.0	0.0	40	1.0	0.0	500.0	1	1.1	0.9				
	4003	1	0.0	0.0	0.0	0.0	40	1.0	0.0	500.0	1	1.1	0.9				
	4004	1	270.4505	35.297	0.0	0.0	40	1.0	0.0	500.0	1	1.1	0.9				
	4005	1	480.1144	157.418	0.0	0.0	40	1.0	0.0	500.0	1	1.1	0.9				
	4006	1	0.0	0.0	0.0	0.0	40	1.0	0.0	500.0	1	1.1	0.9				
	4007	1	0.0	0.0	0.0	0.0	40	1.0	0.0	500.0	1	1.1	0.9				
	4008	1	285.1446	37.198	0.0	0.0	40	1.0	0.0	345.0	1	1.1	0.9				
	4009	1	2208.7429	431.39500000000004	0.0	0.0	40	1.0	0.0	230.0	1	1.1	0.9				
	4010	1	3133.6101	0.0	0.0	0.0	90	1.0	0.0	230.0	1	1.1	0.9				
	4031	2	0.0	0.0	0.0	0.0	40	1.0	0.0	20.0	1	1.1	0.9				
	4035	2	0.0	0.0	0.0	0.0	40	1.0	0.0	20.0	1	1.1	0.9				
	4039	2	0.0	0.0	0.0	0.0	40	1.0	0.0	20.0	1	1.1	0.9				
	4090	1	0.0	0.0	0.0	0.0	40	1.0	0.0	500.0	1	1.1	0.9				
	4091	1	0.0	0.0	0.0	0.0	40	1.0	0.0	500.0	1	1.1	0.9				
	4092	1	0.0	0.0	0.0	0.0	40	1.0	0.0	500.0	1	1.1	0.9				
	4093	1	0.0	0.0	0.0	0.0	40	1.0	0.0	500.0	1	1.1	0.9				
	4094	1	0.0	0.0	0.0	0.0	40	1.0	0.0	500.0	1	1.1	0.9				
	4095	1	0.0	0.0	0.0	0.0	40	1.0	0.0	500.0	1	1.1	0.9				
	4096	1	0.0	0.0	0.0	0.0	40	1.0	0.0	500.0	1	1.1	0.9				
	4097	1	0.0	0.0	0.0	0.0	40	1.0	0.0	500.0	1	1.1	0.9				
	4101	1	995.0274999999999	129.784	0.0	0.0	40	1.0	0.0	500.0	1	1.1	0.9				
	4102	1	480.649	68.664	0.0	0.0	40	1.0	0.0	500.0	1	1.1	0.9				
	4103	1	11.6269	1.509	0.0	0.0	40	1.0	0.0	500.0	1	1.1	0.9				
	4104	1	2527.7724	329.74	0.0	0.0	40	1.0	0.0	230.0	1	1.1	0.9				
	4131	2	0.0	0.0	0.0	0.0	40	1.0	0.0	20.0	1	1.1	0.9				
	4132	2	0.0	0.0	0.0	0.0	40	1.0	0.0	20.0	1	1.1	0.9				
	4201	1	5762.6589	461.013	0.0	0.0	40	1.0	0.0	500.0	1	1.1	0.9				
	4202	1	4558.2389	594.626	0.0	0.0	40	1.0	0.0	500.0	1	1.1	0.9				
	4203	1	4379.6262	571.331	0.0	0.0	40	1.0	0.0	500.0	1	1.1	0.9				
	4204	1	1014.5202000000002	132.34	0.0	0.0	40	1.0	0.0	500.0	1	1.1	0.9				
	4231	2	0.0	0.0	0.0	0.0	40	1.0	0.0	20.0	1	1.1	0.9				
	4232	2	0.0	0.0	0.0	0.0	40	1.0	0.0	20.0	1	1.1	0.9				
	5001	1	7574.0522	1721.375	0.0	0.0	50	1.0	0.0	500.0	1	1.1	0.9				
	5002	1	9003.9839	1174.359	0.0	0.0	50	1.0	0.0	500.0	1	1.1	0.9				
	5003	1	615.2178	80.253	0.0	0.0	50	1.0	0.0	230.0	1	1.1	0.9				
	5004	1	0.0	0.0	0.0	0.0	50	1.0	0.0	230.0	1	1.1	0.9				
	5031	2	0.0	0.0	0.0	0.0	50	1.0	0.0	20.0	1	1.1	0.9				
	5032	2	0.0	0.0	0.0	0.0	50	1.0	0.0	20.0	1	1.1	0.9				
	6101	1	0.0	0.0	0.0	0.0	61	1.0	0.0	500.0	1	1.1	0.9				
	6102	1	1053.1441	-345.277	0.0	0.0	61	1.0	0.0	345.0	1	1.1	0.9				
	6103	1	391.888	51.111	0.0	0.0	61	1.0	0.0	345.0	1	1.1	0.9				
	6104	1	1694.958	221.085	0.0	0.0	61	1.0	0.0	230.0	1	1.1	0.9				
	6132	2	0.0	0.0	0.0	0.0	61	1.0	0.0	20.0	1	1.1	0.9				
	6201	1	205.82	26.857	0.0	0.0	60	1.0	0.0	500.0	1	1.1	0.9				
	6202	1	88.7215	13.528	0.0	0.0	60	1.0	0.0	500.0	1	1.1	0.9				
	6203	1	1112.3464	145.093	0.0	0.0	60	1.0	0.0	230.0	1	1.1	0.9				
	6204	1	1199.2957	156.461	0.0	0.0	60	1.0	0.0	230.0	1	1.1	0.9				
	6205	1	489.2825	86.344	0.0	0.0	60	1.0	0.0	230.0	1	1.1	0.9				
	6231	2	0.0	0.0	0.0	0.0	60	1.0	0.0	20.0	1	1.1	0.9				
	6235	2	0.0	0.0	0.0	0.0	60	1.0	0.0	20.0	1	1.1	0.9				
	6301	1	516.3779	67.362	0.0	0.0	60	1.0	0.0	345.0	1	1.1	0.9				
	6302	1	591.8185	77.219	0.0	0.0	60	1.0	0.0	345.0	1	1.1	0.9				
	6303	1	746.6019	97.404	0.0	0.0	60	1.0	0.0	230.0	1	1.1	0.9				
	6304	1	0.0	0.0	0.0	0.0	60	1.0	0.0	230.0	1	1.1	0.9				
	6305	1	60.2324	19.752	0.0	0.0	60	1.0	0.0	230.0	1	1.1	0.9				
	6333	2	0.0	0.0	0.0	0.0	60	1.0	0.0	20.0	1	1.1	0.9				
	6335	2	0.0	0.0	0.0	0.0	60	1.0	0.0	20.0	1	1.1	0.9				
	6401	1	1672.3727000000001	218.148	0.0	0.0	64	1.0	0.0	345.0	1	1.1	0.9				
	6402	1	272.5124	35.566	0.0	0.0	64	1.0	0.0	115.0	1	1.1	0.9				
	6403	1	2.1985	0.272	0.0	0.0	64	1.0	0.0	345.0	1	1.1	0.9				
	6404	1	28.98	3.775	0.0	0.0	64	1.0	0.0	345.0	1	1.1	0.9				
	6433	2	0.0	0.0	0.0	0.0	64	1.0	0.0	20.0	1	1.1	0.9				
	6501	1	195.5463	64.128	0.0	0.0	60	1.0	0.0	345.0	1	1.1	0.9				
	6502	1	1555.5773	277.672	0.0	0.0	60	1.0	0.0	345.0	1	1.1	0.9				
	6503	1	441.15330000000006	144.603	0.0	0.0	60	1.0	0.0	345.0	1	1.1	0.9				
	6504	1	296.9666	38.73	0.0	0.0	60	1.0	0.0	345.0	1	1.1	0.9				
	6505	1	6.7947	2.231	0.0	0.0	60	1.0	0.0	345.0	1	1.1	0.9				
	6506	1	0.0	0.0	0.0	0.0	60	1.0	0.0	345.0	1	1.1	0.9				
	6507	1	540.775	-61.354	0.0	0.0	60	1.0	0.0	345.0	1	1.1	0.9				
	6508	1	131.8343	43.208	0.0	0.0	60	1.0	0.0	345.0	1	1.1	0.9				
	6509	1	8.5932	2.817	0.0	0.0	60	1.0	0.0	345.0	1	1.1	0.9				
	6510	1	1946.0167	-103.877	0.0	0.0	60	1.0	0.0	230.0	1	1.1	0.9				
	6533	2	0.0	0.0	0.0	0.0	60	1.0	0.0	20.0	1	1.1	0.9				
	7001	1	7453.9144	972.3499999999999	0.0	0.0	60	1.0	0.0	345.0	1	1.1	0.9				
	7002	1	2554.8345	-138.069	0.0	0.0	60	1.0	0.0	345.0	1	1.1	0.9				
	7031	2	0.0	0.0	0.0	0.0	60	1.0	0.0	20.0	1	1.1	0.9				
	7032	2	0.0	0.0	0.0	0.0	60	1.0	0.0	20.0	1	1.1	0.9				
	8001	1	0.0	0.0	0.0	0.0	80	1.0	0.0	500.0	1	1.1	0.9				
	8002	1	0.0	0.0	0.0	0.0	80	1.0	0.0	500.0	1	1.1	0.9				
	8003	1	652.6717	85.141	0.0	0.0	80	1.0	0.0	230.0	1	1.1	0.9				
	8004	1	3787.8914999999997	494.11000000000007	0.0	0.0	80	1.0	0.0	230.0	1	1.1	0.9				
	8005	1	1321.2379	172.37	0.0	0.0	80	1.0	0.0	230.0	1	1.1	0.9				
	8033	2	0.0	0.0	0.0	0.0	80	1.0	0.0	20.0	1	1.1	0.9				
	8034	2	0.0	0.0	0.0	0.0	80	1.0	0.0	20.0	1	1.1	0.9				
];

%% generator data
%    bus    Pg    Qg    Qmax    Qmin    Vg    mBase    status    Pmax    Pmin    Pc1    Pc2    Qc1min    Qc1max    Qc2min    Qc2max    ramp_agc    ramp_10    ramp_30    ramp_q    apf
mpc.gen = [
	1032	1030.0	0.0	1030.0	-1030.0	1.0	100.0	1	2060.0	0.0															
	1032	357.0	0.0	357.0	-357.0	1.0	100.0	1	714.0	0.0															
	1034	2293.5	0.0	2294.0	-2294.0	1.0	100.0	1	4587.0	0.0															
	1034	917.5000000000001	0.0	918.0	-918.0	1.0	100.0	1	1835.0000000000002	0.0															
	1034	700.0	0.0	700.0	-700.0	1.0	100.0	1	1400.0	0.0															
	1131	307.5	0.0	308.0	-308.0	1.0	100.0	1	615.0	0.0															
	1131	1915.4	0.0	1916.0	-1916.0	1.0	100.0	1	3830.8	0.0															
	1131	120.0	0.0	120.0	-120.0	1.0	100.0	1	240.0	0.0															
	1232	1207.5	0.0	1208.0	-1208.0	1.0	100.0	1	2415.0	0.0															
	1232	628.0	0.0	628.0	-628.0	1.0	100.0	1	1256.0	0.0															
	1331	841.0	0.0	841.0	-841.0	1.0	100.0	1	1682.0	0.0															
	1331	1219.0	0.0	1219.0	-1219.0	1.0	100.0	1	2438.0	0.0															
	1333	302.5	0.0	303.0	-303.0	1.0	100.0	1	605.0	0.0															
	1333	2745.5	0.0	2746.0	-2746.0	1.0	100.0	1	5491.0	0.0															
	1333	37.5	0.0	38.0	-38.0	1.0	100.0	1	75.0	0.0															
	1431	3559.35	0.0	3559.0000000000005	-3559.0000000000005	1.0	100.0	1	7118.7	0.0															
	1431	2056.5	0.0	2057.0	-2057.0	1.0	100.0	1	4113.0	0.0															
	1431	15.0	0.0	15.0	-15.0	1.0	100.0	1	30.0	0.0															
	2030	1070.0	0.0	1070.0	-1070.0	1.0	100.0	1	2140.0	0.0															
	2030	349.5	0.0	350.0	-350.0	1.0	100.0	1	699.0	0.0															
	2130	200.0	0.0	200.0	-200.0	1.0	100.0	1	400.0	0.0															
	2130	253.5	0.0	254.0	-254.0	1.0	100.0	1	507.0	0.0															
	2130	250.0	0.0	250.0	-250.0	1.0	100.0	1	500.0	0.0															
	2130	86.0	0.0	86.0	-86.0	1.0	100.0	1	172.0	0.0															
	2233	353.0	93.0	304.0	-118.0	1.0	100.0	1	706.0	0.0															
	2233	626.5	215.0	611.0	-181.0	1.0	100.0	1	1253.0	0.0															
	2233	250.0	25.5	206.0	-155.0	1.0	100.0	1	500.0	0.0															
	2332	559.0	112.99999999999999	590.0	-364.0	1.0	100.0	1	1118.0	0.0															
	2438	781.5	137.0	728.0	-454.0	1.0	100.0	1	1563.0	0.0															
	2438	1859.0	367.0	1902.0	-1168.0	1.0	100.0	1	3718.0	0.0															
	2438	1401.5	624.0	2301.0	-1053.0	1.0	100.0	1	2803.0	0.0															
	2438	670.0	68.0	659.0	-523.0	1.0	100.0	1	1340.0	0.0															
	2438	473.00000000000006	119.5	436.00000000000006	-197.0	1.0	100.0	1	946.0000000000001	0.0															
	2438	636.5	4.0	561.0	-553.0	1.0	100.0	1	1273.0	0.0															
	2438	1983.5	380.0	1910.0000000000002	-1150.0	1.0	100.0	1	3967.0	0.0															
	2438	-503.0	0.25	0.5	0.0	1.0	100.0	1	0.0	-1006.0															
	2533	1116.0	140.0	1100.0	-819.9999999999999	1.0	100.0	1	2232.0	0.0															
	2630	1346.0	0.0	1346.0	-1346.0	1.0	100.0	1	2692.0	0.0															
	2631	159.0	0.0	159.0	-159.0	1.0	100.0	1	318.0	0.0															
	2634	950.0	0.0	950.0	-950.0	1.0	100.0	1	1900.0	0.0															
	2637	55.00000000000001	0.0	110.00000000000001	-110.00000000000001	1.0	100.0	1	110.00000000000001	0.0															
	2638	0.0	0.0	100.0	-100.0	1.0	100.0	1	1272.0	-1272.0															
	3133	21.0	6.5	42.0	-28.999999999999996	1.0	100.0	1	42.0	0.0															
	3133	0.05	0.0	500.0	-500.0	1.0	100.0	1	0.1	0.0															
	3135	184.5	19.0	239.0	-200.99999999999997	1.0	100.0	1	369.0	0.0															
	3135	13.0	7.5	100.0	-85.0	1.0	100.0	1	26.0	0.0															
	3234	60.5	13.0	101.0	-75.0	1.0	100.0	1	121.0	0.0															
	3234	1314.0	5.0	1244.0	-1234.0	1.0	100.0	1	2628.0	0.0															
	3234	353.5	85.0	382.0	-212.0	1.0	100.0	1	707.0	0.0															
	3234	345.0	10.0	75.0	-55.00000000000001	1.0	100.0	1	690.0	0.0															
	3333	345.0	86.0	398.0	-225.99999999999997	1.0	100.0	1	690.0	0.0															
	3333	106.5	29.5	202.0	-143.0	1.0	100.0	1	213.0	0.0															
	3432	147.0	102.0	509.99999999999994	-306.0	1.0	100.0	1	1218.0	-924.0															
	3433	314.0	28.000000000000004	231.0	-175.0	1.0	100.0	1	628.0	0.0															
	3433	1008.0	188.5	939.0	-562.0	1.0	100.0	1	2016.0	0.0															
	3531	434.0	202.5	1003.9999999999999	-599.0	1.0	100.0	1	868.0	0.0															
	3531	162.5	36.0	252.99999999999997	-181.0	1.0	100.0	1	325.0	0.0															
	3531	15.0	1.5	13.0	-10.0	1.0	100.0	1	30.0	0.0															
	3631	26.5	3.0	20.0	-14.000000000000002	1.0	100.0	1	53.0	0.0															
	3631	71.5	20.0	74.0	-34.0	1.0	100.0	1	143.0	0.0															
	3731	127.49999999999999	39.5	200.0	-121.0	1.0	100.0	1	254.99999999999997	0.0															
	3831	1133.5	97.5	1175.0	-980.0000000000001	1.0	100.0	1	2267.0	0.0															
	3835	690.5	91.5	662.0	-479.0	1.0	100.0	1	1381.0	0.0															
	3835	-254.99999999999997	0.25	0.5	0.0	1.0	100.0	1	0.0	-509.99999999999994															
	3836	510.50000000000006	62.0	476.0	-352.0	1.0	100.0	1	1021.0000000000001	0.0															
	3931	157.0	18.0	151.0	-114.99999999999999	1.0	100.0	1	314.0	0.0															
	3931	1848.0	169.0	1284.0	-946.0000000000001	1.0	100.0	1	3696.0	0.0															
	3932	739.0	325.0	1150.0	-500.0	1.0	100.0	1	1478.0	0.0															
	3933	295.0	140.5	363.0	-82.0	1.0	100.0	1	590.0	0.0															
	3933	95.5	11.0	77.0	-55.00000000000001	1.0	100.0	1	191.0	0.0															
	3933	657.0	96.5	500.0	-307.0	1.0	100.0	1	1314.0	0.0															
	3933	1752.4999999999998	107.5	1256.0	-1041.0	1.0	100.0	1	3504.9999999999995	0.0															
	3933	146.5	1.0	13.0	-11.0	1.0	100.0	1	293.0	0.0															
	3933	-224.5	0.25	0.5	0.0	1.0	100.0	1	0.0	-449.0															
	4039	102.0	0.0	102.0	-102.0	1.0	100.0	1	204.0	0.0															
	4039	1459.0	0.0	1459.0	-1459.0	1.0	100.0	1	2918.0	0.0															
	4039	187.5	0.0	188.0	-188.0	1.0	100.0	1	375.0	0.0															
	4031	501.49999999999994	0.0	501.99999999999994	-501.99999999999994	1.0	100.0	1	1002.9999999999999	0.0															
	4031	488.99999999999994	0.0	488.99999999999994	-488.99999999999994	1.0	100.0	1	977.9999999999999	0.0															
	4031	37.5	0.0	38.0	-38.0	1.0	100.0	1	75.0	0.0															
	4031	120.0	0.0	120.0	-120.0	1.0	100.0	1	240.0	0.0															
	4035	254.99999999999997	0.0	254.99999999999997	-254.99999999999997	1.0	100.0	1	509.99999999999994	0.0															
	4035	306.5	0.0	307.0	-307.0	1.0	100.0	1	613.0	0.0															
	4035	1835.5	0.0	1836.0	-1836.0	1.0	100.0	1	3671.0	0.0															
	4035	488.0	0.0	488.0	-488.0	1.0	100.0	1	976.0	0.0															
	4131	6481.5	0.0	6481.999999999999	-6481.999999999999	1.0	100.0	1	12963.0	0.0															
	4131	120.0	0.0	120.0	-120.0	1.0	100.0	1	240.0	0.0															
	4132	1472.5	0.0	1473.0	-1473.0	1.0	100.0	1	2945.0	0.0															
	4132	2846.5	0.0	2847.0	-2847.0	1.0	100.0	1	5693.0	0.0															
	4132	580.0	0.0	580.0	-580.0	1.0	100.0	1	1160.0	0.0															
	4132	230.50000000000003	0.0	231.0	-231.0	1.0	100.0	1	461.00000000000006	0.0															
	4132	87.5	0.0	88.0	-88.0	1.0	100.0	1	175.0	0.0															
	4231	728.0	0.0	728.0	-728.0	1.0	100.0	1	1456.0	0.0															
	4231	658.5	0.0	659.0	-659.0	1.0	100.0	1	1317.0	0.0															
	4231	1807.5	0.0	1807.9999999999998	-1807.9999999999998	1.0	100.0	1	3615.0	0.0															
	4231	23.5	0.0	24.0	-24.0	1.0	100.0	1	47.0	0.0															
	4232	592.0	0.0	592.0	-592.0	1.0	100.0	1	1184.0	0.0															
	4232	286.5	0.0	287.0	-287.0	1.0	100.0	1	573.0	0.0															
	4232	107.5	0.0	108.0	-108.0	1.0	100.0	1	215.0	0.0															
	5031	605.0	0.0	605.0	-605.0	1.0	100.0	1	1210.0	0.0															
	5031	4399.4	0.0	4399.0	-4399.0	1.0	100.0	1	8798.8	0.0															
	5032	2977.0	0.0	2977.0	-2977.0	1.0	100.0	1	5954.0	0.0															
	5032	2200.0	0.0	2200.0	-2200.0	1.0	100.0	1	4400.0	0.0															
	5032	2205.1	0.0	2205.0	-2205.0	1.0	100.0	1	4410.2	0.0															
	5032	54.0	0.0	54.0	-54.0	1.0	100.0	1	108.0	0.0															
	5032	270.5	0.0	271.0	-271.0	1.0	100.0	1	541.0	0.0															
	6132	7.5	0.0	8.0	-8.0	1.0	100.0	1	15.0	0.0															
	6132	146.5	0.0	147.0	-147.0	1.0	100.0	1	293.0	0.0															
	6132	1072.0	0.0	1072.0	-1072.0	1.0	100.0	1	2144.0	0.0															
	6132	17.5	0.0	18.0	-18.0	1.0	100.0	1	35.0	0.0															
	6132	118.0	0.0	118.0	-118.0	1.0	100.0	1	236.0	0.0															
	6231	1255.5	0.0	1256.0	-1256.0	1.0	100.0	1	2511.0	0.0															
	6231	70.0	0.0	70.0	-70.0	1.0	100.0	1	140.0	0.0															
	6235	63.5	0.0	64.0	-64.0	1.0	100.0	1	127.0	0.0															
	6235	346.5	0.0	347.0	-347.0	1.0	100.0	1	693.0	0.0															
	6235	95.0	0.0	95.0	-95.0	1.0	100.0	1	190.0	0.0															
	6333	1671.0	0.0	1671.0	-1671.0	1.0	100.0	1	3342.0	0.0															
	6333	124.0	0.0	124.0	-124.0	1.0	100.0	1	248.0	0.0															
	6335	967.5000000000001	0.0	968.0	-968.0	1.0	100.0	1	1935.0000000000002	0.0															
	6335	329.5	0.0	330.0	-330.0	1.0	100.0	1	659.0	0.0															
	6335	405.99999999999994	0.0	405.99999999999994	-405.99999999999994	1.0	100.0	1	811.9999999999999	0.0															
	6433	282.5	0.0	283.0	-283.0	1.0	100.0	1	565.0	0.0															
	6433	59.0	0.0	59.0	-59.0	1.0	100.0	1	118.0	0.0															
	6433	536.0	0.0	536.0	-536.0	1.0	100.0	1	1072.0	0.0															
	6433	11.5	0.0	12.0	-12.0	1.0	100.0	1	23.0	0.0															
	6433	25.0	0.0	25.0	-25.0	1.0	100.0	1	50.0	0.0															
	6533	1923.5	0.0	1923.9999999999998	-1923.9999999999998	1.0	100.0	1	3847.0	0.0															
	6533	18.5	0.0	19.0	-19.0	1.0	100.0	1	37.0	0.0															
	6533	880.0000000000001	0.0	880.0000000000001	-880.0000000000001	1.0	100.0	1	1760.0000000000002	0.0															
	6533	19.5	0.0	20.0	-20.0	1.0	100.0	1	39.0	0.0															
	6533	30.5	0.0	31.0	-31.0	1.0	100.0	1	61.0	0.0															
	7031	1418.5	0.0	1419.0	-1419.0	1.0	100.0	1	2837.0	0.0															
	7031	2092.0	0.0	2092.0	-2092.0	1.0	100.0	1	4184.0	0.0															
	7031	0.0	0.0	167.0	-167.0	1.0	100.0	1	333.0	-333.0															
	7031	298.5	0.0	299.0	-299.0	1.0	100.0	1	597.0	0.0															
	7031	0.05	0.0	1000.0	-1000.0	1.0	100.0	1	0.1	0.0															
	7032	826.0	0.0	826.0	-826.0	1.0	100.0	1	1652.0	0.0															
	7032	488.99999999999994	0.0	488.99999999999994	-488.99999999999994	1.0	100.0	1	977.9999999999999	0.0															
	7032	345.5	0.0	346.0	-346.0	1.0	100.0	1	691.0	0.0															
	7032	0.0	0.0	23.0	-23.0	1.0	100.0	1	200.0	-200.0															
	8033	786.0	0.0	786.0	-786.0	1.0	100.0	1	1572.0	0.0															
	8034	1280.0	0.0	1280.0	-1280.0	1.0	100.0	1	2560.0	0.0															
	8034	344.0	0.0	344.0	-344.0	1.0	100.0	1	688.0	0.0															
];

%% branch data
%    f_bus    t_bus    r    x    b    rateA    rateB    rateC    ratio    angle    status    angmin    angmax
mpc.branch = [
	1001	1201	0.0017636321250508573	0.031575988905148115	3.4844606525353328	996.0000000000001	996.0000000000001	996.0000000000001	0	0	1	-29.999999999999996	29.999999999999996								
	1001	1202	0.011037271696224253	0.0986200587486618	0.4043122689299326	326.0	326.0	326.0	0	0	1	-29.999999999999996	29.999999999999996								
	1002	1004	0.0005008701796109904	0.00530922390255751	0.04830869742672996	5934.0	5934.0	5934.0	0	0	1	-29.999999999999996	29.999999999999996								
	1002	1102	0.0017921315874536586	0.01990367363662646	2.5900056395686106	1583.0	1583.0	1583.0	0	0	1	-29.999999999999996	29.999999999999996								
	1002	1102	0.0018308983389123113	0.02033422280358457	2.557737618097894	1583.0	1583.0	1583.0	0	0	1	-29.999999999999996	29.999999999999996								
	1002	6506	0.004892510799329784	0.04444030577712923	0.7292193203007565	721.0	721.0	721.0	0	0	1	-29.999999999999996	29.999999999999996								
	1004	7001	0.010830688454580992	0.1544257855869699	1.8910724942508643	114.99999999999999	114.99999999999999	114.99999999999999	0	0	1	-29.999999999999996	29.999999999999996								
	1004	7002	0.009610017017813333	0.10819874119861186	1.9688714278515929	287.0	287.0	287.0	0	0	1	-29.999999999999996	29.999999999999996								
	1101	1401	0.002795557798140595	0.02106652478946551	1.0077912433077363	1485.0	1485.0	1485.0	0	0	1	-29.999999999999996	29.999999999999996								
	1101	1401	0.0027996911170063087	0.021097672299280466	1.0002332292988139	1485.0	1485.0	1485.0	0	0	1	-29.999999999999996	29.999999999999996								
	1201	1202	0.0007707624216034001	0.0053653072458968686	1.3807678265904775	5834.0	5834.0	5834.0	0	0	1	-29.999999999999996	29.999999999999996								
	1201	1402	0.0017839743374149172	0.02583274541962716	3.414490372974907	1216.0	1216.0	1216.0	0	0	1	-29.999999999999996	29.999999999999996								
	1201	2901	0.00207180557075447	0.013701941179999443	3.7893920838662956	2282.0	2282.0	2282.0	0	0	1	-29.999999999999996	29.999999999999996								
	1202	1302	0.0027995462709600855	0.02109658079298148	0.9894877012190751	1485.0	1485.0	1485.0	0	0	1	-29.999999999999996	29.999999999999996								
	1202	1402	0.0024238284853552996	0.03509019671487827	4.913240814997535	903.9999999999999	903.9999999999999	903.9999999999999	0	0	1	-29.999999999999996	29.999999999999996								
	1301	1302	0.002821620717203962	0.021262927504691397	1.0464767578958039	1485.0	1485.0	1485.0	0	0	1	-29.999999999999996	29.999999999999996								
	1301	1402	0.0027967204241151006	0.02107528601152927	1.1211073675843222	1485.0	1485.0	1485.0	0	0	1	-29.999999999999996	29.999999999999996								
	1301	1402	0.006413580042889552	0.0696183730453513	1.086429173307364	468.0	468.0	468.0	0	0	1	-29.999999999999996	29.999999999999996								
	1301	2603	0.0017874240054621083	0.025203676752376464	0.5700801953749266	1249.0	1249.0	1249.0	0	0	1	-29.999999999999996	29.999999999999996								
	1301	2901	0.010622975161708714	0.09491824321736254	0.4810256930865908	326.0	326.0	326.0	0	0	1	-29.999999999999996	29.999999999999996								
	1303	6507	0.007791784080890301	0.13152829907585864	1.136040167414541	231.0	231.0	231.0	0	0	1	-29.999999999999996	29.999999999999996								
	1401	1402	0.00039068971630068706	0.009376553153959239	0.8001228157416763	3288.0000000000005	3288.0000000000005	3288.0000000000005	0	0	1	-29.999999999999996	29.999999999999996								
	1401	1402	0.00039971282050745623	0.009593107652133571	0.9564647731791581	3288.0000000000005	3288.0000000000005	3288.0000000000005	0	0	1	-29.999999999999996	29.999999999999996								
	1401	2301	0.002611249433763255	0.02991342466293064	2.12345624308355	1061.0	1061.0	1061.0	0	0	1	-29.999999999999996	29.999999999999996								
	1401	2400	0.0025942729602141832	0.029718949097052815	2.1554462957259086	1061.0	1061.0	1061.0	0	0	1	-29.999999999999996	29.999999999999996								
	1403	2100	0.007877670788897988	0.06557578082856481	0.13571382335841325	446.0	446.0	446.0	0	0	1	-29.999999999999996	29.999999999999996								
	2000	2202	0.0014935646002634392	0.05843296218203135	0.11864783859902472	585.0	585.0	585.0	0	0	1	-29.999999999999996	29.999999999999996								
	2000	2302	0.001400730985505796	0.05480102492548818	0.057165947262333094	585.0	585.0	585.0	0	0	1	-29.999999999999996	29.999999999999996								