%% MATPOWER Case Format : Version 2
function mpc = pglib_opf_case89_pegase
mpc.version = '2';

%%-----  Power Flow Data  -----%%
%% system MVA base
mpc.baseMVA = 100.0;
%% bus data
%    bus_i    type    Pd    Qd    Gs    Bs    area    Vm    Va    baseKV    zone    Vmax    Vmin
mpc.bus = [
	89	1	0.0	0.0	0.19911099999999998	4.530599	0	1.0	0.0	380.0	2	1.1	0.9				
	228	1	-23.43	57.4	0.0	0.0	0	1.0	0.0	150.0	2	1.1	0.9				
	271	1	96.7	26.8	0.0	0.0	0	1.0	0.0	150.0	2	1.1	0.9				
	317	1	0.0	0.0	0.045946	-1.8220300000000003	0	1.0	0.0	380.0	2	1.1	0.9				
	659	1	0.0	0.0	0.174507	73.977052	0	1.0	0.0	380.0	2	1.1	0.9				
	792	1	295.3	41.9	0.0	0.0	0	1.0	0.0	150.0	2	1.1	0.9				
	913	3	0.0	0.0	0.0	0.0	0	1.0	0.0	380.0	2	1.1	0.9				
	955	1	244.19999999999996	152.7	0.0	0.0	0	1.0	0.0	150.0	2	1.1	0.9				
	1037	1	0.0	0.0	0.0	0.55	0	1.0	0.0	380.0	2	1.1	0.9				
	1163	1	0.0	0.0	0.0	16.04	0	1.0	0.0	380.0	2	1.1	0.9				
	1317	1	149.3	-2.0	0.0	20.77	0	1.0	0.0	380.0	2	1.1	0.9				
	1367	1	0.0	0.0	0.175687	-1.509401	0	1.0	0.0	380.0	2	1.1	0.9				
	1445	1	238.39999999999998	210.9	0.0	0.0	0	1.0	0.0	220.0	2	1.1	0.9				
	1531	1	0.0	0.0	0.0	0.0	0	1.0	0.0	150.0	2	1.1	0.9				
	1579	1	0.0	0.0	0.0	16.56	0	1.0	0.0	380.0	2	1.1	0.9				
	1611	1	274.1	166.5	0.0	0.56	0	1.0	0.0	150.0	2	1.1	0.9				
	1616	1	0.0	0.0	0.0	14.45	0	1.0	0.0	380.0	2	1.1	0.9				
	1676	1	0.0	0.0	0.171586	-1.4632	0	1.0	0.0	380.0	2	1.1	0.9				
	1815	1	63.66	9.7	0.0	0.0	0	1.0	0.0	220.0	2	1.1	0.9				
	1968	1	118.40000000000002	137.0	0.0	0.0	0	1.0	0.0	150.0	2	1.1	0.9				
	2107	2	0.0	0.0	0.0	0.0	0	1.0	0.0	380.0	2	1.1	0.9				
	2154	1	-357.45	33.05	0.29	-5.6	0	1.0	0.0	380.0	2	1.1	0.9				
	2168	1	8.6	-1.48	0.0	0.0	0	1.0	0.0	150.0	2	1.1	0.9				
	2267	2	0.0	0.0	0.0	0.0	0	1.0	0.0	380.0	2	1.1	0.9				
	2268	1	0.0	0.0	0.183167	22.675025	0	1.0	0.0	380.0	2	1.1	0.9				
	2299	1	402.09999999999997	110.2	0.0	0.0	0	1.0	0.0	150.0	2	1.1	0.9				
	2441	1	0.0	0.0	0.24253399999999997	1.143584	0	1.0	0.0	380.0	2	1.1	0.9				
	2449	1	301.9	-103.2	0.0	0.0	0	1.0	0.0	150.0	2	1.1	0.9				
	2520	1	0.0	0.0	0.057433	3.80797	0	1.0	0.0	380.0	2	1.1	0.9				
	2870	1	0.0	0.0	0.0	0.62	0	1.0	0.0	380.0	2	1.1	0.9				
	2908	1	203.8	61.0	0.0	0.6	0	1.0	0.0	150.0	2	1.1	0.9				
	3097	1	361.91	3.66	0.0	9.39	0	1.0	0.0	380.0	2	1.1	0.9				
	3242	1	296.1	82.3	0.0	0.0	0	1.0	0.0	150.0	2	1.1	0.9				
	3279	1	0.0	0.0	0.0	0.0	0	1.0	0.0	150.0	2	1.1	0.9				
	3493	1	226.29999999999998	61.1	0.0	0.0	0	1.0	0.0	150.0	2	1.1	0.9				
	3506	1	0.0	0.0	0.0	0.6	0	1.0	0.0	150.0	2	1.1	0.9				
	3659	2	0.0	0.0	0.0	0.0	0	1.0	0.0	380.0	2	1.1	0.9				
	4014	1	0.0	0.0	0.0	0.0	0	1.0	0.0	150.0	2	1.1	0.9				
	4423	1	0.0	0.0	0.0	0.33	0	1.0	0.0	150.0	2	1.1	0.9				
	4427	1	296.8	77.7	0.0	0.0	0	1.0	0.0	150.0	2	1.1	0.9				
	4495	1	336.3	104.4	0.0	0.0	0	1.0	0.0	150.0	2	1.1	0.9				
	4586	2	0.0	0.0	0.0	0.0	0	1.0	0.0	150.0	2	1.1	0.9				
	4665	1	390.5	62.5	0.0	0.0	0	1.0	0.0	150.0	2	1.1	0.9				
	4929	1	37.0	8.7	0.070441	50.913893	0	1.0	0.0	380.0	2	1.1	0.9				
	5097	2	0.0	0.0	0.0	0.0	0	1.0	0.0	150.0	2	1.1	0.9				
	5155	1	411.30000000000007	168.0	0.0	0.0	0	1.0	0.0	150.0	2	1.1	0.9				
	5210	1	347.61	74.37	0.0	0.0	0	1.0	0.0	220.0	2	1.1	0.9				
	5416	1	0.0	0.0	0.0	25.129999999999995	0	1.0	0.0	380.0	2	1.1	0.9				
	5509	1	0.0	0.0	0.314057	17.296509	0	1.0	0.0	380.0	2	1.1	0.9				
	5587	1	0.0	0.0	0.0	0.33	0	1.0	0.0	150.0	2	1.1	0.9				
	5762	1	0.0	0.0	0.0	2.23	0	1.0	0.0	380.0	2	1.1	0.9				
	5776	1	222.7	80.5	0.0	0.0	0	1.0	0.0	150.0	2	1.1	0.9				
	5848	1	0.0	0.0	0.29	-0.42	0	1.0	0.0	380.0	2	1.1	0.9				
	5996	1	0.0	0.0	0.164188	4.023827	0	1.0	0.0	380.0	2	1.1	0.9				
	6069	1	-456.66	-131.97	0.285753	35.371068	0	1.0	0.0	380.0	2	1.1	0.9				
	6233	2	0.0	0.0	0.0	0.0	0	1.0	0.0	380.0	2	1.1	0.9				
	6293	1	0.0	0.0	0.0	33.66	0	1.0	0.0	380.0	2	1.1	0.9				
	6542	1	355.98	-147.98	0.0	0.0	0	1.0	0.0	220.0	2	1.1	0.9				
	6704	1	0.0	0.0	0.211099	0.672832	0	1.0	0.0	380.0	2	1.1	0.9				
	6798	2	0.0	0.0	0.0	0.0	0	1.0	0.0	380.0	2	1.1	0.9				
	6826	1	326.9	-82.3	0.0	0.0	0	1.0	0.0	150.0	2	1.1	0.9				
	6833	1	0.0	0.0	0.246363	4.841277	0	1.0	0.0	380.0	2	1.1	0.9				
	7051	1	0.0	0.0	0.0	21.19	0	1.0	0.0	380.0	2	1.1	0.9				
	7180	1	0.0	0.0	0.234234	4.220723	0	1.0	0.0	380.0	2	1.1	0.9				
	7279	2	0.0	0.0	0.0	0.0	0	1.0	0.0	150.0	2	1.1	0.9				
	7526	1	-179.73	-63.080000000000005	0.0	0.0	0	1.0	0.0	380.0	2	1.1	0.9				
	7563	1	531.7	-12.8	0.0	0.0	0	1.0	0.0	150.0	2	1.1	0.9				
	7637	1	0.0	0.0	0.29	6.18	0	1.0	0.0	380.0	2	1.1	0.9				
	7762	1	0.0	0.0	0.304243	48.453399	0	1.0	0.0	380.0	2	1.1	0.9				
	7829	1	-114.36	30.04	0.0	0.0	0	1.0	0.0	220.0	2	1.1	0.9				
	7960	2	0.0	0.0	0.0	0.0	0	1.0	0.0	380.0	2	1.1	0.9				
	8103	1	39.34	-10.7	0.0	0.0	0	1.0	0.0	150.0	2	1.1	0.9				
	8179	1	0.0	0.0	0.194464	19.1468	0	1.0	0.0	380.0	2	1.1	0.9				
	8181	1	0.0	0.0	0.21082399999999998	6.620599	0	1.0	0.0	380.0	2	1.1	0.9				
	8229	1	0.0	0.0	0.0	0.0	0	1.0	0.0	150.0	2	1.1	0.9				
	8329	1	0.0	0.0	0.149712	2.04987	0	1.0	0.0	380.0	2	1.1	0.9				
	8335	1	637.92	139.57	0.0	0.0	0	1.0	0.0	150.0	2	1.1	0.9				
	8420	1	0.0	0.0	0.0	0.0	0	1.0	0.0	150.0	2	1.1	0.9				
	8574	1	0.0	0.0	0.447839	20.994738	0	1.0	0.0	380.0	2	1.1	0.9				
	8581	1	-1299.13	-140.85	0.0	0.0	0	1.0	0.0	380.0	2	1.1	0.9				
	8605	2	0.0	0.0	0.0	0.0	0	1.0	0.0	380.0	2	1.1	0.9				
	8847	1	0.0	0.0	0.18076	-0.8812510000000001	0	1.0	0.0	380.0	2	1.1	0.9				
	8921	1	0.0	0.0	0.0	16.37	0	1.0	0.0	380.0	2	1.1	0.9				
	8964	1	925.91	147.97	0.0	0.0	0	1.0	0.0	150.0	2	1.1	0.9				
	9024	1	0.0	0.0	0.141019	25.245999999999995	0	1.0	0.0	380.0	2	1.1	0.9				
	9025	1	0.0	0.0	0.205903	3.0768	0	1.0	0.0	380.0	2	1.1	0.9				
	9064	1	0.0	0.0	0.0	15.259999999999998	0	1.0	0.0	380.0	2	1.1	0.9				
	9192	1	17.92	23.3	0.0	0.0	0	1.0	0.0	150.0	2	1.1	0.9				
	9239	2	0.0	0.0	0.0	0.0	0	1.0	0.0	380.0	2	1.1	0.9				
];

%% generator data
%    bus    Pg    Qg    Qmax    Qmin    Vg    mBase    status    Pmax    Pmin    Pc1    Pc2    Qc1min    Qc1max    Qc2min    Qc2max    ramp_agc    ramp_10    ramp_30    ramp_q    apf
mpc.gen = [
	913	1133.335	251.085	772.11	-269.94	1.0	100.0	1	1700.0	566.67															
	2107	1000.0	202.14	661.9	-257.62	1.0	100.0	1	1500.0	500.0															
	2267	333.335	74.665	228.16	-78.83	1.0	100.0	1	500.0	166.67															
	3659	1333.335	330.815	943.6399999999999	-282.01	1.0	100.0	1	2000.0	666.67															
	4586	-313.8	31.574999999999996	92.96	-29.81	1.0	100.0	1	100.0	-727.6															
	5097	14.154999999999998	2.4	8.91	-4.11	1.0	100.0	1	21.23	7.08															
	6233	800.0	177.855	545.68	-189.97	1.0	100.0	1	1200.0	400.0															
	6798	666.665	123.065	429.61	-183.48	1.0	100.0	1	1000.0	333.33															
	7279	-404.465	4.07	14.78	-6.64	1.0	100.0	1	100.0	-908.93															
	7960	400.0	90.49	274.2	-93.22	1.0	100.0	1	600.0	200.0															
	8605	400.0	90.145	273.94	-93.65	1.0	100.0	1	600.0	200.0															
	9239	400.0	90.49	274.2	-93.22	1.0	100.0	1	600.0	200.0															
];

%% branch data
%    f_bus    t_bus    r    x    b    rateA    rateB    rateC    ratio    angle    status    angmin    angmax
mpc.branch = [
	3097	659	0.0007390599636157039	0.009066423233252201	-0.0014275494666590926	1205.0	3479.9999999999995	3479.9999999999995	0	0	1	-29.999999999999996	29.999999999999996								
	9024	4929	0.002049809931171818	0.02329303858238887	-0.0014275866673866334	909.0	1371.0	1371.0	0	0	1	-29.999999999999996	29.999999999999996								
	1815	6542	0.01488685447097654	0.0573147535484733	-0.0014276594339530226	521.0	521.0	521.0	0	0	1	-29.999999999999996	29.999999999999996								
	6542	1445	0.026778408014628195	0.07062061462205207	-0.0014275707655579972	415.00000000000006	415.00000000000006	415.00000000000006	0	0	1	-29.999999999999996	29.999999999999996								
	6069	6833	0.000540123004822676	0.004645580077121051	-0.0014275505674911785	1600.0	6748.0	6748.0	0	0	1	-29.999999999999996	29.999999999999996								
	6069	2268	0.0012828370069785497	0.011197267329881506	-0.0014275458870576443	1632.9999999999998	2793.0	2793.0	0	0	1	-29.999999999999996	29.999999999999996								
	6069	7180	0.00048090941328279325	0.005271685207594176	-0.00142755075720855	1567.0	5970.0	5970.0	0	0	1	-29.999999999999996	29.999999999999996								
	6069	6293	0.0008369523544389571	0.009287588748530357	-0.001427552609410009	1600.0	3354.9999999999995	3354.9999999999995	0	0	1	-29.999999999999996	29.999999999999996								
	1968	9192	0.0002795918126456613	0.0034963839632450233	-0.39344746515613555	8992.0	8992.0	8992.0	0	0	1	-29.999999999999996	29.999999999999996								
	1968	3493	0.005390319924167751	0.13628956008855497	-0.0014275458870576443	8.0	8.0	8.0	0	0	1	-29.999999999999996	29.999999999999996								
	1968	955	0.015143585980707589	0.09280237945218242	-0.0014276072666419668	337.0	337.0	337.0	0	0	1	-29.999999999999996	29.999999999999996								
	1968	228	0.02459673043379355	0.13191652269737908	-0.0014275458870576443	7.000000000000001	7.000000000000001	7.000000000000001	0	0	1	-29.999999999999996	29.999999999999996								
	1968	6826	0.05641857623861139	0.09462970688544926	-0.0014276069357459875	339.0	339.0	339.0	0	0	1	-29.999999999999996	29.999999999999996								
	1968	8964	0.0026526647515343386	0.011961450059438364	-0.0014276290520040202	319.0	2595.0	2595.0	0	0	1	-29.999999999999996	29.999999999999996								
	1968	5776	0.014446138992426374	0.13495639165798604	-0.14951502886757506	16.0	16.0	16.0	0	0	1	-29.999999999999996	29.999999999999996								
	9192	955	0.005390324873271697	0.13628955969646242	-0.001427605505652657	56.00000000000001	56.00000000000001	56.00000000000001	0	0	1	-29.999999999999996	29.999999999999996								
	9192	6826	0.03330599076308069	0.12782453304087	-0.0014276027090613568	53.0	53.0	53.0	0	0	1	-29.999999999999996	29.999999999999996								
	9192	8964	0.02006132930515119	0.07067676346612554	-0.001427621113597331	446.0	446.0	446.0	0	0	1	-29.999999999999996	29.999999999999996								
	8574	1616	0.0003898624288867993	0.0038536159681475534	-0.0014275458870576443	1435.0	8142.0	8142.0	0	0	1	-29.999999999999996	29.999999999999996								
	8574	1163	0.0010175799038486138	0.011407238162026682	-0.0014275458870576443	1468.0	2766.0	2766.0	0	0	1	-29.999999999999996	29.999999999999996								
	8574	9064	0.00037020073778228974	0.0032494846029968052	-0.0014275458870576443	1435.0	9657.0	9657.0	0	0	1	-29.999999999999996	29.999999999999996								
	8574	8921	0.00029132360357344563	0.003397272407140993	-0.0014275458870576443	1600.0	9284.0	9284.0	0	0	1	-29.999999999999996	29.999999999999996								
	3493	2299	0.014522979735819582	0.13493970329254928	-0.004241143407713706	199.0	199.0	199.0	0	0	1	-29.999999999999996	29.999999999999996								
	2299	4423	1.4280300787994336e-8	0.00022200523111023772	-0.04878257740161004	142286.0	142286.0	142286.0	0	0	1	-29.999999999999996	29.999999999999996								
	6826	2299	0.00539033226599149	0.1362895591107738	-0.0014275458870576443	5.0	5.0	5.0	0	0	1	-29.999999999999996	29.999999999999996								
	7563	2299	0.005390378639057009	0.13628955543684695	-0.0014275692727927672	28.999999999999996	28.999999999999996	28.999999999999996	0	0	1	-29.999999999999996	29.999999999999996								
	4427	2299	0.030297000628464157	0.12940970993867554	-0.35168052224317903	162.0	162.0	162.0	0	0	1	-29.999999999999996	29.999999999999996								
	8335	2299	0.008031451554550727	0.13602855379180345	-0.0014275458870576443	7.000000000000001	7.000000000000001	7.000000000000001	0	0	1	-29.999999999999996	29.999999999999996								
	5155	2299	0.005390342934363722	0.13628955826557007	-0.0014275458870576443	30.0	30.0	30.0	0	0	1	-29.999999999999996	29.999999999999996								
	271	2299	0.018478291625404573	0.08290980059419162	-0.24351635120878898	354.0	354.0	354.0	0	0	1	-29.999999999999996	29.999999999999996								
	2449	2299	0.00539032393057197	0.1362895597711478	-0.0822849005573602	7.000000000000001	7.000000000000001	7.000000000000001	0	0	1	-29.999999999999996	29.999999999999996								
	4665	2299	0.006906683102586194	0.0292117920260429	-0.0014275684252817967	1068.0	1068.0	1068.0	0	0	1	-29.999999999999996	29.999999999999996								
	4495	2299	0.01318023450211541	0.13521802041083159	-0.0014275641680227067	121.0	121.0	121.0	0	0	1	-29.999999999999996	29.999999999999996								
	3493	5587	1.4279652392354051e-8	0.00022200019092924418	-0.285312938109634	319.0	142286.0	142286.0	0	0	1	-29.999999999999996	29.999999999999996								
	4586	3493	0.021675211791239952	0.13296949744716807	-0.00142783128765216	94.0	94.0	94.0	0	0	1	-29.999999999999996	29.999999999999996								
	228	3493	0.02619538440311482	0.0786134200764319	-1.3194064288207372	305.0	305.0	305.0	0	0	1	-29.999999999999996	29.999999999999996								
	6826	3493	0.027909677299387436	0.13053540258742288	-0.0014276007542045439	37.0	37.0	37.0	0	0	1	-29.999999999999996	29.999999999999996								
	7563	3493	0.005390324506159097	0.1362895597255469	-0.0014275692680298343	17.0	17.0	17.0	0	0	1	-29.999999999999996	29.999999999999996								
	4427	3493	0.038840235140373984	0.12437344119660142	-0.13419745662426583	192.0	192.0	192.0	0	0	1	-29.999999999999996	29.999999999999996								
	8335	3493	0.005390321998878151	0.13628955992418615	-0.0014275458870576443	6.0	6.0	6.0	0	0	1	-29.999999999999996	29.999999999999996								
	5155	3493	0.02081517419426366	0.08322396761701956	-0.0014275458870576443	373.0	373.0	373.0	0	0	1	-29.999999999999996	29.999999999999996								
	271	3493	0.006140080306653353	0.13622599962464962	-0.0014367497191269311	18.0	18.0	18.0	0	0	1	-29.999999999999996	29.999999999999996								
	5776	3493	0.010340537044644093	0.13571487233523585	-0.0993175470910629	11.0	11.0	11.0	0	0	1	-29.999999999999996	29.999999999999996								
	2449	3493	0.012660796327946398	0.13531816570482985	-0.0014275458870576443	6.0	6.0	6.0	0	0	1	-29.999999999999996	29.999999999999996								
	4665	3493	0.005390376149878337	0.13628955563405404	-0.0014275688953481723	37.0	37.0	37.0	0	0	1	-29.999999999999996	29.999999999999996								
	4495	3493	0.007058443734850862	0.029609736264164233	-0.001427563052782687	1038.0	1038.0	1038.0	0	0	1	-29.999999999999996	29.999999999999996								
	5587	4586	0.003539838305602726	0.020246356220091178	-0.001427905156900846	1545.0	1545.0	1545.0	0	0	1	-29.999999999999996	29.999999999999996								
	4423	4586	0.0029960915745128433	0.02039109989563153	-0.001427906956849082	1544.0	1544.0	1544.0	0	0	1	-29.999999999999996	29.999999999999996								
	4929	2870	4.000126049102123e-5	0.00041001292003143647	-0.0014275576528540957	777.0	76679.0	76679.0	0	0	1	-29.999999999999996	29.999999999999996								
	4929	659	0.000869410454608377	0.010839363105299638	-0.0014275528529217936	1303.0	2897.0	2897.0	0	0	1	-29.999999999999996	29.999999999999996								
	4929	1037	3.999982582825271e-5	0.0004599979970224632	-0.0014275578191990641	777.0	68410.0	68410.0	0	0	1	-29.999999999999996	29.999999999999996								
	4929	659	0.0009507581605913571	0.009231759590206327	-0.0014275531038600167	1501.0	3401.0	3401.0	0	0	1	-29.999999999999996	29.999999999999996								
	1815	5210	0.005390607146916517	0.136289537332745	-0.0014275473938826163	12.0	12.0	12.0	0	0	1	-29.999999999999996	29.999999999999996								
	1815	1445	0.03427844767499576	0.1250709946009181	-0.0014275523956309897	239.0	239.0	239.0	0	0	1	-29.999999999999996	29.999999999999996								
	1616	7762	0.00043994081536030016	0.003197694080174661	-0.0014275458870576443	1664.9999999999998	9780.0	9780.0	0	0	1	-29.999999999999996	29.999999999999996								
	1616	2520	0.0004606392057969573	0.004885637714627135	-0.0014275458870576443	1730.9999999999998	6431.999999999999	6431.999999999999	0	0	1	-29.999999999999996	29.999999999999996								
	9064	7762	0.00030069381896446264	0.0035234199232839904	-0.0014275458870576443	1600.0	8942.0	8942.0	0	0	1	-29.999999999999996	29.999999999999996								
	9064	89	0.0005099723416221262	0.004531016965712185	-0.0014275458870576443	1664.9999999999998	6915.000000000001	6915.000000000001	0	0	1	-29.999999999999996	29.999999999999996								
	1317	659	0.0006890101442985583	0.007458956262767667	-0.0014275474257556416	1632.9999999999998	4217.0	4217.0	0	0	1	-29.999999999999996	29.999999999999996								
	1317	8605	0.0009641005360455502	0.010182938937436522	-0.0014275458870576443	1764.0	3079.0	3079.0	0	0	1	-29.999999999999996	29.999999999999996								
	8605	1367	3.999667067399676e-5	0.0003999667540362622	-0.0014275458870576443	1501.0	78577.0	78577.0	0	0	1	-29.999999999999996	29.999999999999996								
	8605	8921	0.0008005394139776698	0.006976307178215032	-0.0014275458870576443	1764.0	4498.0	4498.0	0	0	1	-29.999999999999996	29.999999999999996								
	1163	1676	3.999469875430164e-5	0.0004299433320971107	-0.0014275463709467692	1600.0	73144.0	73144.0	0	0	1	-29.999999999999996	29.999999999999996								
	1163	7051	0.0002502679114950109	0.003090221034563863	-0.0014275469046384963	1698.0	10190.0	10190.0	0	0	1	-29.999999999999996	29.999999999999996								
	913	7762	0.0004724906586053892	0.005375936316416959	-0.0014275458870576443	1632.9999999999998	5849.0	5849.0	0	0	1	-29.999999999999996	29.999999999999996								
	2107	7762	0.00047612917558682177	0.005498306483413458	-0.0014275458870576443	1764.0	5744.0	5744.0	0	0	1	-29.999999999999996	29.999999999999996								
	2107	5996	0.00016036324988147086	0.001732764273771997	-0.0014285996990692084	1863.0	18181.0	18181.0	0	0	1	-29.999999999999996	29.999999999999996								
	2107	6293	0.0018970327805255924	0.014076204848770445	-0.0014275871287705159	1764.0	2134.0	2134.0	0	0	1	-29.999999999999996	29.999999999999996								
	913	7762	0.0005128926622846986	0.005123047867887221	-0.0014275458870576443	1797.0	6140.0	6140.0	0	0	1	-29.999999999999996	29.999999999999996								
	6704	8921	0.00020996607412533138	0.002479316368761422	-0.0014275458870576443	1534.0	12692.0	12692.0	0	0	1	-29.999999999999996	29.999999999999996								
	228	4586	0.0036829406310009607	0.02083937446425929	-0.0014289836970106755	306.0	1428.0	1428.0	0	0	1	-29.999999999999996	29.999999999999996								
	2441	6293	0.00024004875930502885	0.0028898813235713884	-0.0014275565839811728	1664.9999999999998	10893.0	10893.0	0	0	1	-29.999999999999996	29.999999999999996								
	955	3506	1.4279239768770311e-8	0.00022199698350074812	-0.0014275648132796134	358.0	142286.0	142286.0	0	0	1	-29.999999999999996	29.999999999999996								
	955	8964	0.014132375498950602	0.09514437821581649	-0.00142756894230886	310.0	310.0	310.0	0	0	1	-29.999999999999996	29.999999999999996								
	3506	2908	0.00689098387219744	0.03991101915327138	-0.0014275650887832338	780.0	780.0	780.0	0	0	1	-29.999999999999996	29.999999999999996								
	228	6826	0.005390322366245186	0.1362895598950815	-0.0014276225613070576	32.0	32.0	32.0	0	0	1	-29.999999999999996	29.999999999999996								
	228	5776	0.0053903202275763	0.13628956006451745	-0.0014275458870576443	10.0	10.0	10.0	0	0	1	-29.999999999999996	29.999999999999996								
	8964	6826	0.043396572242767786	0.12092952699658499	-0.0014275674560733493	63.0	63.0	63.0	0	0	1	-29.999999999999996	29.999999999999996								
	5776	6826	0.002823285943437789	0.011459918752039446	-0.0014276074954844118	2682.0	2682.0	2682.0	0	0	1	-29.999999999999996	29.999999999999996								
	659	8329	0.00033975610216592224	0.0030484738417974667	-0.0014275499267305156	1600.0	10293.0	10293.0	0	0	1	-29.999999999999996	29.999999999999996								
	659	7051	0.0013835004092737136	0.012378876852733795	-0.0014275484322281418	1863.0	2505.0	2505.0	0	0	1	-29.999999999999996	29.999999999999996								
	659	9239	5.999884685891525e-5	0.0006499855685661848	-0.001427549332231501	1435.0	48391.0	48391.0	0	0	1	-29.999999999999996	29.999999999999996								
	659	7960	6.000119040515985e-5	0.0006300108382861419	-0.0014275495813467673	1534.0	49913.0	49913.0	0	0	1	-29.999999999999996	29.999999999999996								
	659	6233	6.001980881234703e-5	0.0005501811565488224	-0.0014275495888397367	1764.0	57092.99999999999	57092.99999999999	0	0	1	-29.999999999999996	29.999999999999996								
	659	5416	0.0008537060491170737	0.00963953494155937	-0.0014275517719467398	1369.0	3253.0	3253.0	0	0	1	-29.999999999999996	29.999999999999996								
	659	6798	6.998913131209486e-5	0.0007898660798535742	-0.0014275492679820345	39828.0	39828.0	39828.0	0	0	1	-29.999999999999996	29.999999999999996								
	792	3279	1.4280090509863507e-8	0.00022200359658570303	-0.0014275458870576443	397.0	142286.0	142286.0	0	0	1	-29.999999999999996	29.999999999999996								
	7563	792	0.005390324441015612	0.13628955973070792	-0.0014275458870576443	5.0	5.0	5.0	0	0	1	-29.999999999999996	29.999999999999996								
	7279	792	0.010372901851047936	0.1357099036399128	-0.0014275475050741081	63.0	63.0	63.0	0	0	1	-29.999999999999996	29.999999999999996								
	8335	792	0.02236007169840137	0.10187706273740671	-0.0014275458870576443	254.0	254.0	254.0	0	0	1	-29.999999999999996	29.999999999999996								
	2449	792	0.00757431998548658	0.13608116090414868	-0.0014276474889631503	86.0	86.0	86.0	0	0	1	-29.999999999999996	29.999999999999996								
	4665	792	0.02118601045671373	0.13313128822587803	-0.0014275458870576443	14.000000000000002	14.000000000000002	14.000000000000002	0	0	1	-29.999999999999996	29.999999999999996								
	4495	792	0.012563097663762303	0.13533653547675945	-0.0014275458870576443	13.0	13.0	13.0	0	0	1	-29.999999999999996	29.999999999999996								
	5416	2267	0.00024004783256057058	0.0021302130787085164	-0.0014275546221107806	777.0	14737.0	14737.0	0	0	1	-29.999999999999996	29.999999999999996								
	5416	7637	0.0010214343637707617	0.008852805456756655	-0.0014275570295331917	1303.0	3554.0	3554.0	0	0	1	-29.999999999999996	29.999999999999996								
	8964	2168	1.4279883229362088e-8	0.00022200198534022512	-0.0014275723644200642	332.0	142286.0	142286.0	0	0	1	-29.999999999999996	29.999999999999996								
	3659	5996	0.00017999513100964116	0.0020378332964685734	-0.001428088923417288	1797.0	15425.0	15425.0	0	0	1	-29.999999999999996	29.999999999999996								
	5762	5996	0.0001800054992280636	0.0020800635376682004	-0.0014280200246780295	777.0	15130.000000000002	15130.000000000002	0	0	1	-29.999999999999996	29.999999999999996								
	3242	5097	1.4279667695528933e-8	0.00022200030995459536	-0.0014275745711410841	142286.0	142286.0	142286.0	0	0	1	-29.999999999999996	29.999999999999996								
	7563	3242	0.011225325787214607	0.08217959172017741	-0.001427556318871558	331.0	331.0	331.0	0	0	1	-29.999999999999996	29.999999999999996								
	4427	3242	0.005390325462473661	0.13628955964978287	-0.0014275458870576443	5.0	5.0	5.0	0	0	1	-29.999999999999996	29.999999999999996								
	3242	7279	0.0076338704004633605	0.07192372693821608	-0.0014275729682646167	430.99999999999994	430.99999999999994	430.99999999999994	0	0	1	-29.999999999999996	29.999999999999996								
	271	3242	0.005390323649061726	0.13628955979345042	-0.0014276290036045072	4.0	4.0	4.0	0	0	1	-29.999999999999996	29.999999999999996								
	3242	1611	0.005390370713571717	0.13628955606474932	-0.0014275458870576443	56.00000000000001	56.00000000000001	56.00000000000001	0	0	1	-29.999999999999996	29.999999999999996								
	5097	1611	0.004193670086040359	0.026183774352684232	-0.0014275458870576443	1189.0	1189.0	1189.0	0	0	1	-29.999999999999996	29.999999999999996								
	8181	8179	0.0003098918883833754	0.003169524478538502	-0.0014275458870576443	1271.0	9918.0	9918.0	0	0	1	-29.999999999999996	29.999999999999996								
	8181	7762	0.0004292405910544068	0.0049680837884499745	-0.0014275458870576443	1501.0	6320.0	6320.0	0	0	1	-29.999999999999996	29.999999999999996								
	9025	7762	0.00041972774294572957	0.005065597453270994	-0.0014275458870576443	1730.9999999999998	6197.0	6197.0	0	0	1	-29.999999999999996	29.999999999999996								
	7563	4427	0.00539032203774479	0.13628955992110697	-0.001427570673521546	41.0	41.0	41.0	0	0	1	-29.999999999999996	29.999999999999996								
	7563	7279	0.008254221794996235	0.03590513641069042	-0.0014275551853501491	817.0	817.0	817.0	0	0	1	-29.999999999999996	29.999999999999996								
	7563	8335	0.005390473170573335	0.13628954794744674	-0.0014275458870576443	53.0	53.0	53.0	0	0	1	-29.999999999999996	29.999999999999996								
	7563	5155	0.005390320997702252	0.13628956000350426	-0.0014275458870576443	28.000000000000004	28.000000000000004	28.000000000000004	0	0	1	-29.999999999999996	29.999999999999996								
	7563	271	0.00539031990123199	0.13628956009037205	-0.0014275698870720602	35.0	35.0	35.0	0	0	1	-29.999999999999996	29.999999999999996								
	2449	7563	0.0053903210470757764	0.13628955999959266	-0.0014275458870576443	7.000000000000001	7.000000000000001	7.000000000000001	0	0	1	-29.999999999999996	29.999999999999996								
	4665	7563	0.012385155444355513	0.06328119245823687	-0.0014275473042753043	492.0	492.0	492.0	0	0	1	-29.999999999999996	29.999999999999996								
	4495	7563	0.005390330266031362	0.13628955926922084	-0.0014275462148742339	17.0	17.0	17.0	0	0	1	-29.999999999999996	29.999999999999996								
	7563	1611	0.009228578254879471	0.07940659283435432	-0.0014275458870576443	307.0	307.0	307.0	0	0	1	-29.999999999999996	29.999999999999996								
	4427	7279	0.007340662702327289	0.1361068453036822	-0.0014276227017684957	12.0	12.0	12.0	0	0	1	-29.999999999999996	29.999999999999996								
	4427	8335	0.0053903208338429535	0.136289560016486	-0.0014275458870576443	5.0	5.0	5.0	0	0	1	-29.999999999999996	29.999999999999996								
	4427	5155	0.006252042553894106	0.047430998004017975	-0.0014275458870576443	652.0	652.0	652.0	0	0	1	-29.999999999999996	29.999999999999996								
	4427	271	0.0065329392221561014	0.04208717765091518	-0.3641015269830052	723.0	723.0	723.0	0	0	1	-29.999999999999996	29.999999999999996								
	2449	4427	0.00900537119445018	0.13590603831827147	-0.0014275458870576443	5.0	5.0	5.0	0	0	1	-29.999999999999996	29.999999999999996								
	4665	4427	0.005390340702957872	0.13628955844235374	-0.001427569486574409	26.0	26.0	26.0	0	0	1	-29.999999999999996	29.999999999999996								
	4495	4427	0.009118842658919315	0.04345262119868227	-0.0014275647585974566	714.0	714.0	714.0	0	0	1	-29.999999999999996	29.999999999999996								
	4427	1611	0.005390321417212544	0.1362895599702686	-0.0014275458870576443	6.0	6.0	6.0	0	0	1	-29.999999999999996	29.999999999999996								
	5210	1445	0.0026763948957916573	0.017225918214880783	-0.0014275458870576443	1817.0000000000002	1817.0000000000002	1817.0000000000002	0	0	1	-29.999999999999996	29.999999999999996								
	8179	5509	0.0007338794130422539	0.0069276652414282805	-0.0014275458870576443	1271.0	4526.0	4526.0	0	0	1	-29.999999999999996	29.999999999999996								
	8179	7762	0.000677342443629395	0.007980670162897292	-0.0014275458870576443	1567.0	3935.0	3935.0	0	0	1	-29.999999999999996	29.999999999999996								
	7279	4014	1.4279051449828824e-8	0.00022199551964064755	-0.0014275693599677917	142286.0	142286.0	142286.0	0	0	1	-29.999999999999996	29.999999999999996								
	8335	7279	0.004879874131868829	0.029335128411441338	-0.0014275458870576443	1017.0	1017.0	1017.0	0	0	1	-29.999999999999996	29.999999999999996								
	5155	7279	0.005390322781162436	0.13628955986220972	-0.0014275458870576443	9.0	9.0	9.0	0	0	1	-29.999999999999996	29.999999999999996								
	271	7279	0.005390322755403058	0.1362895598642505	-0.001427615732372196	13.0	13.0	13.0	0	0	1	-29.999999999999996	29.999999999999996								
	2449	7279	0.007668771949390733	0.13607054718481976	-0.793108021179386	43.0	43.0	43.0	0	0	1	-29.999999999999996	29.999999999999996								
	4665	7279	0.015570411700574936	0.13470295480533317	-0.001427554639576126	14.000000000000002	14.000000000000002	14.000000000000002	0	0	1	-29.999999999999996	29.999999999999996								
	4495	7279	0.0057651182829471116	0.13625882746085394	-0.0014275458870576443	7.000000000000001	7.000000000000001	7.000000000000001	0	0	1	-29.999999999999996	29.999999999999996								
	1611	7279	0.008650403089372271	0.135952339892394	-0.0014275458870576443	195.0	195.0	195.0	0	0	1	-29.999999999999996	29.999999999999996								
	5509	1579	0.0008786818259113	0.008927845021371708	-0.0014275458870576443	1830.0	3513.0000000000005	3513.0000000000005	0	0	1	-29.999999999999996	29.999999999999996								
	8335	1531	1.4279666146834171e-8	0.0002220002979362753	-0.0014275458870576443	319.0	142286.0	142286.0	0	0	1	-29.999999999999996	29.999999999999996								
	5155	8335	0.005390322990971296	0.13628955984558763	-0.0014275458870576443	4.0	4.0	4.0	0	0	1	-29.999999999999996	29.999999999999996								
	2449	8335	0.023643033196970083	0.12305156214257097	-0.0014275458870576443	204.99999999999997	204.99999999999997	204.99999999999997	0	0	1	-29.999999999999996	29.999999999999996								
	4665	8335	0.005390325429012293	0.13628955965243386	-0.0014275458870576443	47.0	47.0	47.0	0	0	1	-29.999999999999996	29.999999999999996								
	4495	8335	0.005390324280661112	0.13628955974341198	-0.0014275458870576443	35.0	35.0	35.0	0	0	1	-29.999999999999996	29.999999999999996								
	7762	2268	0.0006786629582029918	0.007745903090827779	-0.0014275458870576443	1632.9999999999998	4051.0	4051.0	0	0	1	-29.999999999999996	29.999999999999996								
	5155	271	0.004134645332693658	0.0594503480558166	-0.0014275458870576443	509.0	509.0	509.0	0	0	1	-29.999999999999996	29.999999999999996								
	5155	2908	0.013318800900064686	0.06048107425264173	-0.0014275458870576443	520.0	520.0	520.0	0	0	1	-29.999999999999996	29.999999999999996								
	4665	5155	0.005390325940930949	0.1362895596118771	-0.0014275458870576443	12.0	12.0	12.0	0	0	1	-29.999999999999996	29.999999999999996								
	4495	5155	0.005390323842170709	0.13628955977815138	-0.0014275458870576443	15.0	15.0	15.0	0	0	1	-29.999999999999996	29.999999999999996								
	5155	1611	0.006801749060940139	0.06919649281347237	-0.0014275458870576443	432.0	432.0	432.0	0	0	1	-29.999999999999996	29.999999999999996								
	271	2908	0.016956928649070103	0.05427339211149284	-0.0014276048479096603	547.0	547.0	547.0	0	0	1	-29.999999999999996	29.999999999999996								
	4665	271	0.005390321486329445	0.1362895599647928	-0.0014275458870576443	7.000000000000001	7.000000000000001	7.000000000000001	0	0	1	-29.999999999999996	29.999999999999996								
	4495	271	0.005390324537771242	0.13628955972304244	-0.001427564368221251	9.0	9.0	9.0	0	0	1	-29.999999999999996	29.999999999999996								